aqu_catunit.ele: written by SWAT+ editor v1.2.3 on 2020-11-06 14:57
      id  name                   obj_typ  obj_typ_no      bsn_frac      sub_frac      reg_frac  
       1  aqu010                     aqu           1       0.02261       0.00000       0.00000  
       2  aqu020                     aqu           2       0.00060       0.00000       0.00000  
       3  aqu030                     aqu           3       0.02135       0.00000       0.00000  
       4  aqu040                     aqu           4       0.04303       0.00000       0.00000  
       5  aqu050                     aqu           5       0.04361       0.00000       0.00000  
       6  aqu060                     aqu           6       0.01949       0.00000       0.00000  
       7  aqu070                     aqu           7       0.01090       0.00000       0.00000  
       8  aqu080                     aqu           8       0.00540       0.00000       0.00000  
       9  aqu090                     aqu           9       0.02753       0.00000       0.00000  
      10  aqu100                     aqu          10       0.00977       0.00000       0.00000  
      11  aqu110                     aqu          11       0.01560       0.00000       0.00000  
      12  aqu120                     aqu          12       0.01605       0.00000       0.00000  
      13  aqu130                     aqu          13       0.03234       0.00000       0.00000  
      14  aqu140                     aqu          14       0.03862       0.00000       0.00000  
      15  aqu150                     aqu          15       0.00820       0.00000       0.00000  
      16  aqu160                     aqu          16       0.06088       0.00000       0.00000  
      17  aqu170                     aqu          17       0.00001       0.00000       0.00000  
      18  aqu180                     aqu          18       0.00413       0.00000       0.00000  
      19  aqu190                     aqu          19       0.02202       0.00000       0.00000  
      20  aqu200                     aqu          20       0.04840       0.00000       0.00000  
      21  aqu210                     aqu          21       0.01672       0.00000       0.00000  
      22  aqu220                     aqu          22       0.05260       0.00000       0.00000  
      23  aqu230                     aqu          23       0.00299       0.00000       0.00000  
      24  aqu240                     aqu          24       0.00086       0.00000       0.00000  
      25  aqu250                     aqu          25       0.05630       0.00000       0.00000  
      26  aqu260                     aqu          26       0.07359       0.00000       0.00000  
      27  aqu270                     aqu          27       0.01311       0.00000       0.00000  
      28  aqu280                     aqu          28       0.02733       0.00000       0.00000  
      29  aqu290                     aqu          29       0.02334       0.00000       0.00000  
      30  aqu300                     aqu          30       0.01936       0.00000       0.00000  
      31  aqu310                     aqu          31       0.01581       0.00000       0.00000  
      32  aqu320                     aqu          32       0.06137       0.00000       0.00000  
      33  aqu330                     aqu          33       0.01957       0.00000       0.00000  
      34  aqu340                     aqu          34       0.06677       0.00000       0.00000  
      35  aqu350                     aqu          35       0.07627       0.00000       0.00000  
      36  aqu360                     aqu          36       0.00027       0.00000       0.00000  
      37  aqu370                     aqu          37       0.02320       0.00000       0.00000  
      38  aqu_deep2                  aqu          38       1.00000       0.00000       0.00000  
