aquifer.con: written by SWAT+ editor v1.2.3 on 2020-11-06 14:57
      id  name                gis_id          area           lat           lon          elev       aqu               wst       cst      ovfl      rule   out_tot       obj_typ    obj_id       hyd_typ          frac  
       1  aqu010                  10  786469.19874      -5.40444     -74.40514     112.70335         1      sta546s7438w         0         0         0         2           sdc         2           tot       1.00000           aqu        38           rhg       1.00000  
       2  aqu020                  20   20986.78509      -4.97921     -73.80518     117.74339         2      sta484s7375w         0         0         0         2           sdc         1           tot       1.00000           aqu        38           rhg       1.00000  
       3  aqu030                  30  742916.33333      -6.03916     -73.77752     157.36450         3      sta609s7375w         0         0         0         2           sdc         3           tot       1.00000           aqu        38           rhg       1.00000  
       4  aqu040                  40  1496953.81252      -6.58751     -74.26136     188.22618         4      sta671s7438w         0         0         0         2           sdc         5           tot       1.00000           aqu        38           rhg       1.00000  
       5  aqu050                  50  1517372.31565      -6.47586     -75.07378     168.57268         5      sta640s7500w         0         0         0         2           sdc         4           tot       1.00000           aqu        38           rhg       1.00000  
       6  aqu060                  60  678138.79734      -7.30886     -75.81487     568.99548         6      sta734s7594w         0         0         0         2           sdc        13           tot       1.00000           aqu        38           rhg       1.00000  
       7  aqu070                  70  379381.07451      -7.47935     -75.28750     189.13521         7      sta734s7531w         0         0         0         2           sdc         6           tot       1.00000           aqu        38           rhg       1.00000  
       8  aqu080                  80  187962.56361      -7.47257     -74.81318     211.58323         8      sta734s7469w         0         0         0         2           sdc         7           tot       1.00000           aqu        38           rhg       1.00000  
       9  aqu090                  90  957674.05234      -7.94206     -74.34028     212.77363         9      sta796s7438w         0         0         0         2           sdc         9           tot       1.00000           aqu        38           rhg       1.00000  
      10  aqu100                 100  339905.30179      -7.89659     -74.89966     179.93029        10      sta796s7500w         0         0         0         2           sdc         8           tot       1.00000           aqu        38           rhg       1.00000  
      11  aqu110                 110  542689.45198      -8.09838     -75.60447     474.35818        11      sta796s7562w         0         0         0         2           sdc        12           tot       1.00000           aqu        38           rhg       1.00000  
      12  aqu120                 120  558522.05182      -8.39262     -74.04803     206.23500        12      sta827s7406w         0         0         0         2           sdc        10           tot       1.00000           aqu        38           rhg       1.00000  
      13  aqu130                 130  1125052.91457      -8.70355     -75.35062     424.26559        13      sta859s7531w         0         0         0         2           sdc        11           tot       1.00000           aqu        38           rhg       1.00000  
      14  aqu140                 140  1343735.74389      -8.99220     -73.64243     230.92391        14      sta890s7375w         0         0         0         2           sdc        20           tot       1.00000           aqu        38           rhg       1.00000  
      15  aqu150                 150  285350.23323      -8.97688     -74.81463     346.26631        15      sta890s7469w         0         0         0         2           sdc        16           tot       1.00000           aqu        38           rhg       1.00000  
      16  aqu160                 160  2117973.66453      -9.98244     -73.94603     440.16311        16      sta984s7406w         0         0         0         2           sdc        15           tot       1.00000           aqu        38           rhg       1.00000  
      17  aqu170                 170     251.10133      -8.77733     -74.51113     151.05263        17      sta890s7438w         0         0         0         2           sdc        14           tot       1.00000           aqu        38           rhg       1.00000  
      18  aqu180                 180  143676.21798      -9.25142     -75.00495     323.09819        18      sta921s7500w         0         0         0         2           sdc        17           tot       1.00000           aqu        38           rhg       1.00000  
      19  aqu190                 190  766156.42249     -10.00355     -75.60856    2042.09144        19     sta1015s7562w         0         0         0         2           sdc        19           tot       1.00000           aqu        38           rhg       1.00000  
      20  aqu200                 200  1683799.63599     -10.16064     -74.85740     768.84202        20     sta1015s7500w         0         0         0         2           sdc        18           tot       1.00000           aqu        38           rhg       1.00000  
      21  aqu210                 210  581689.45375     -10.49698     -72.92663     340.65171        21     sta1046s7281w         0         0         0         2           sdc        27           tot       1.00000           aqu        38           rhg       1.00000  
      22  aqu220                 220  1830033.12281     -11.17998     -75.18459    2621.65506        22     sta1108s7531w         0         0         0         2           sdc        26           tot       1.00000           aqu        38           rhg       1.00000  
      23  aqu230                 230  104180.62148     -10.77044     -73.56998     312.56971        23     sta1077s7344w         0         0         0         2           sdc        24           tot       1.00000           aqu        38           rhg       1.00000  
      24  aqu240                 240   29861.23484     -10.66169     -73.79717     353.61806        24     sta1077s7375w         0         0         0         2           sdc        21           tot       1.00000           aqu        38           rhg       1.00000  
      25  aqu250                 250  1958682.90839     -11.88970     -75.62197    4214.06524        25     sta1202s7562w         0         0         0         2           sdc        32           tot       1.00000           aqu        38           rhg       1.00000  
      26  aqu260                 260  2560301.87846     -11.62323     -72.89185     814.13234        26     sta1171s7281w         0         0         0         2           sdc        25           tot       1.00000           aqu        38           rhg       1.00000  
      27  aqu270                 270  456000.02073     -11.19541     -73.77481     863.16999        27     sta1108s7375w         0         0         0         2           sdc        22           tot       1.00000           aqu        38           rhg       1.00000  
      28  aqu280                 280  950900.92428     -11.83373     -73.97312    1479.46632        28     sta1171s7406w         0         0         0         2           sdc        23           tot       1.00000           aqu        38           rhg       1.00000  
      29  aqu290                 290  811962.59197     -12.20532     -74.59530    3104.65512        29     sta1233s7469w         0         0         0         2           sdc        28           tot       1.00000           aqu        38           rhg       1.00000  
      30  aqu300                 300  673460.38303     -12.83944     -73.67046    2394.21033        30     sta1296s7375w         0         0         0         2           sdc        29           tot       1.00000           aqu        38           rhg       1.00000  
      31  aqu310                 310  549958.17478     -13.10273     -71.80745    3320.29612        31     sta1296s7188w         0         0         0         2           sdc        31           tot       1.00000           aqu        38           rhg       1.00000  
      32  aqu320                 320  2135015.51553     -13.29336     -72.18650    3247.79919        32     sta1327s7219w         0         0         0         2           sdc        30           tot       1.00000           aqu        38           rhg       1.00000  
      33  aqu330                 330  680874.48029     -13.11587     -74.49083    3851.75641        33     sta1327s7438w         0         0         0         2           sdc        37           tot       1.00000           aqu        38           rhg       1.00000  
      34  aqu340                 340  2323123.45359     -13.80908     -74.04694    3848.97324        34     sta1389s7406w         0         0         0         2           sdc        36           tot       1.00000           aqu        38           rhg       1.00000  
      35  aqu350                 350  2653586.02367     -14.34429     -72.02556    4101.71706        35     sta1421s7188w         0         0         0         2           sdc        34           tot       1.00000           aqu        38           rhg       1.00000  
      36  aqu360                 360    9495.59515     -13.40099     -73.18440    2454.16493        36     sta1327s7312w         0         0         0         2           sdc        33           tot       1.00000           aqu        38           rhg       1.00000  
      37  aqu370                 370  807026.46840     -14.17514     -73.03298    3947.08249        37     sta1421s7312w         0         0         0         2           sdc        35           tot       1.00000           aqu        38           rhg       1.00000  
      38  aqu_deep2                2  34791120.52389      -4.97921     -73.80518     117.74339        38      sta484s7375w         0         0         0         0  
