chandeg.con: written by SWAT+ editor v1.2.3 on 2020-11-06 14:57
      id  name                gis_id          area           lat           lon          elev      lcha               wst       cst      ovfl      rule   out_tot       obj_typ    obj_id       hyd_typ          frac  
       1  cha01                    1  34790755.53280      -4.97921     -73.80518             0         1      sta484s7375w         0         0         0         0  
       2  cha02                    2  34027218.53440      -5.40444     -74.40514             0         2      sta546s7438w         0         0         0         1           sdc         1           tot       1.00000  
       3  cha03                    3  742916.35200      -6.03916     -73.77752             0         3      sta609s7375w         0         0         0         1           sdc         1           tot       1.00000  
       4  cha04                    4  31743793.56160      -6.47586     -75.07378             0         4      sta640s7500w         0         0         0         1           sdc         2           tot       1.00000  
       5  cha05                    5  1496953.85600      -6.58751     -74.26136             0         5      sta671s7438w         0         0         0         1           sdc         2           tot       1.00000  
       6  cha06                    6  29548281.85600      -7.47935     -75.28750             0         6      sta734s7531w         0         0         0         1           sdc         4           tot       1.00000  
       7  cha07                    7  29168438.47680      -7.47257     -74.81318             0         7      sta734s7469w         0         0         0         1           sdc         6           tot       1.00000  
       8  cha08                    8  28438249.47200      -7.89659     -74.89966             0         8      sta796s7500w         0         0         0         1           sdc         7           tot       1.00000  
       9  cha09                    9  26973292.13440      -7.94206     -74.34028             0         9      sta796s7438w         0         0         0         1           sdc         8           tot       1.00000  
      10  cha10                   10  26015558.86080      -8.39262     -74.04803             0        10      sta827s7406w         0         0         0         1           sdc         9           tot       1.00000  
      11  cha11                   11  1125052.92800      -8.70355     -75.35062             0        11      sta859s7531w         0         0         0         1           sdc         8           tot       1.00000  
      12  cha12                   12  542689.43360      -8.09838     -75.60447             0        12      sta796s7562w         0         0         0         1           sdc         7           tot       1.00000  
      13  cha13                   13  678138.77760      -7.30886     -75.81487             0        13      sta734s7594w         0         0         0         1           sdc         4           tot       1.00000  
      14  cha14                   14  24113360.07680      -8.77733     -74.51113             0        14      sta890s7438w         0         0         0         1           sdc        10           tot       1.00000  
      15  cha15                   15  21234126.02880      -9.98244     -73.94603             0        15      sta984s7406w         0         0         0         1           sdc        14           tot       1.00000  
      16  cha16                   16  2878982.55360      -8.97688     -74.81463             0        16      sta890s7469w         0         0         0         1           sdc        14           tot       1.00000  
      17  cha17                   17  2593546.44480      -9.25142     -75.00495             0        17      sta921s7500w         0         0         0         1           sdc        16           tot       1.00000  
      18  cha18                   18  1683799.65440     -10.16064     -74.85740             0        18     sta1015s7500w         0         0         0         1           sdc        17           tot       1.00000  
      19  cha19                   19  766156.44160     -10.00355     -75.60856             0        19     sta1015s7562w         0         0         0         1           sdc        17           tot       1.00000  
      20  cha20                   20  1343735.70560      -8.99220     -73.64243             0        20      sta890s7375w         0         0         0         1           sdc        10           tot       1.00000  
      21  cha21                   21  19116146.68800     -10.66169     -73.79717             0        21     sta1077s7375w         0         0         0         1           sdc        15           tot       1.00000  
      22  cha22                   22  13155146.13760     -11.19541     -73.77481             0        22     sta1108s7375w         0         0         0         1           sdc        21           tot       1.00000  
      23  cha23                   23  10869112.83200     -11.83373     -73.97312             0        23     sta1171s7406w         0         0         0         1           sdc        22           tot       1.00000  
      24  cha24                   24  5931145.62560     -10.77044     -73.56998             0        24     sta1077s7344w         0         0         0         1           sdc        21           tot       1.00000  
      25  cha25                   25  5245275.75040     -11.62323     -72.89185             0        25     sta1171s7281w         0         0         0         1           sdc        24           tot       1.00000  
      26  cha26                   26  1830033.20320     -11.17998     -75.18459             0        26     sta1108s7531w         0         0         0         1           sdc        22           tot       1.00000  
      27  cha27                   27  581689.44640     -10.49698     -72.92663             0        27     sta1046s7281w         0         0         0         1           sdc        24           tot       1.00000  
      28  cha28                   28  3451519.79520     -12.20532     -74.59530             0        28     sta1233s7469w         0         0         0         1           sdc        23           tot       1.00000  
      29  cha29                   29  6466691.89120     -12.83944     -73.67046             0        29     sta1296s7375w         0         0         0         1           sdc        23           tot       1.00000  
      30  cha30                   30  2135015.42400     -13.29336     -72.18650             0        30     sta1327s7219w         0         0         0         1           sdc        25           tot       1.00000  
      31  cha31                   31  549958.19520     -13.10273     -71.80745             0        31     sta1296s7188w         0         0         0         1           sdc        25           tot       1.00000  
      32  cha32                   32  1958682.82880     -11.88970     -75.62197             0        32     sta1202s7562w         0         0         0         1           sdc        28           tot       1.00000  
      33  cha33                   33  3470108.26240     -13.40099     -73.18440             0        33     sta1327s7312w         0         0         0         1           sdc        29           tot       1.00000  
      34  cha34                   34  2653586.02240     -14.34429     -72.02556             0        34     sta1421s7188w         0         0         0         1           sdc        33           tot       1.00000  
      35  cha35                   35  807026.48320     -14.17514     -73.03298             0        35     sta1421s7312w         0         0         0         1           sdc        33           tot       1.00000  
      36  cha36                   36  2323123.40480     -13.80908     -74.04694             0        36     sta1389s7406w         0         0         0         1           sdc        29           tot       1.00000  
      37  cha37                   37  680874.49600     -13.11587     -74.49083             0        37     sta1327s7438w         0         0         0         1           sdc        28           tot       1.00000  
