field.fld: written by SWAT+ editor v1.2.3 on 2020-11-06 14:57
name                       len            wd           ang  
fld010               500.00000     100.00000      30.00000  
fld020               500.00000     100.00000      30.00000  
fld030               500.00000     100.00000      30.00000  
fld040               500.00000     100.00000      30.00000  
fld050               500.00000     100.00000      30.00000  
fld060               500.00000     100.00000      30.00000  
fld070               500.00000     100.00000      30.00000  
fld080               500.00000     100.00000      30.00000  
fld090               500.00000     100.00000      30.00000  
fld100               500.00000     100.00000      30.00000  
fld110               500.00000     100.00000      30.00000  
fld120               500.00000     100.00000      30.00000  
fld130               500.00000     100.00000      30.00000  
fld140               500.00000     100.00000      30.00000  
fld150               500.00000     100.00000      30.00000  
fld160               500.00000     100.00000      30.00000  
fld170               500.00000     100.00000      30.00000  
fld180               500.00000     100.00000      30.00000  
fld190               500.00000     100.00000      30.00000  
fld200               500.00000     100.00000      30.00000  
fld210               500.00000     100.00000      30.00000  
fld220               500.00000     100.00000      30.00000  
fld230               500.00000     100.00000      30.00000  
fld240               500.00000     100.00000      30.00000  
fld250               500.00000     100.00000      30.00000  
fld260               500.00000     100.00000      30.00000  
fld270               500.00000     100.00000      30.00000  
fld280               500.00000     100.00000      30.00000  
fld290               500.00000     100.00000      30.00000  
fld300               500.00000     100.00000      30.00000  
fld310               500.00000     100.00000      30.00000  
fld320               500.00000     100.00000      30.00000  
fld330               500.00000     100.00000      30.00000  
fld340               500.00000     100.00000      30.00000  
fld350               500.00000     100.00000      30.00000  
fld360               500.00000     100.00000      30.00000  
fld370               500.00000     100.00000      30.00000  
