hmd.cli: Relative humidity file names - file written by SWAT+ editor 2020-10-09 17:43:20.739644
filename
r101709.hmd
r101713.hmd
r101716.hmd
r101719.hmd
r101722.hmd
r101725.hmd
r101728.hmd
r101731.hmd
r101734.hmd
r101738.hmd
r101741.hmd
r101744.hmd
r101747.hmd
r101750.hmd
r101753.hmd
r101756.hmd
r101759.hmd
r101763.hmd
r105709.hmd
r105713.hmd
r105716.hmd
r105719.hmd
r105722.hmd
r105725.hmd
r105728.hmd
r105731.hmd
r105734.hmd
r105738.hmd
r105741.hmd
r105744.hmd
r105747.hmd
r105750.hmd
r105753.hmd
r105756.hmd
r105759.hmd
r105763.hmd
r108709.hmd
r108713.hmd
r108716.hmd
r108719.hmd
r108722.hmd
r108725.hmd
r108728.hmd
r108731.hmd
r108734.hmd
r108738.hmd
r108741.hmd
r108744.hmd
r108747.hmd
r108750.hmd
r108753.hmd
r108756.hmd
r108759.hmd
r108763.hmd
r111709.hmd
r111713.hmd
r111716.hmd
r111719.hmd
r111722.hmd
r111725.hmd
r111728.hmd
r111731.hmd
r111734.hmd
r111738.hmd
r111741.hmd
r111744.hmd
r111747.hmd
r111750.hmd
r111753.hmd
r111756.hmd
r111759.hmd
r111763.hmd
r114709.hmd
r114713.hmd
r114716.hmd
r114719.hmd
r114722.hmd
r114725.hmd
r114728.hmd
r114731.hmd
r114734.hmd
r114738.hmd
r114741.hmd
r114744.hmd
r114747.hmd
r114750.hmd
r114753.hmd
r114756.hmd
r114759.hmd
r114763.hmd
r117709.hmd
r117713.hmd
r117716.hmd
r117719.hmd
r117722.hmd
r117725.hmd
r117728.hmd
r117731.hmd
r117734.hmd
r117738.hmd
r117741.hmd
r117744.hmd
r117747.hmd
r117750.hmd
r117753.hmd
r117756.hmd
r117759.hmd
r117763.hmd
r120709.hmd
r120713.hmd
r120716.hmd
r120719.hmd
r120722.hmd
r120725.hmd
r120728.hmd
r120731.hmd
r120734.hmd
r120738.hmd
r120741.hmd
r120744.hmd
r120747.hmd
r120750.hmd
r120753.hmd
r120756.hmd
r120759.hmd
r120763.hmd
r123709.hmd
r123713.hmd
r123716.hmd
r123719.hmd
r123722.hmd
r123725.hmd
r123728.hmd
r123731.hmd
r123734.hmd
r123738.hmd
r123741.hmd
r123744.hmd
r123747.hmd
r123750.hmd
r123753.hmd
r123756.hmd
r123759.hmd
r123763.hmd
r126709.hmd
r126713.hmd
r126716.hmd
r126719.hmd
r126722.hmd
r126725.hmd
r126728.hmd
r126731.hmd
r126734.hmd
r126738.hmd
r126741.hmd
r126744.hmd
r126747.hmd
r126750.hmd
r126753.hmd
r126756.hmd
r126759.hmd
r126763.hmd
r130709.hmd
r130713.hmd
r130716.hmd
r130719.hmd
r130722.hmd
r130725.hmd
r130728.hmd
r130731.hmd
r130734.hmd
r130738.hmd
r130741.hmd
r130744.hmd
r130747.hmd
r130750.hmd
r130753.hmd
r130756.hmd
r130759.hmd
r130763.hmd
r133709.hmd
r133713.hmd
r133716.hmd
r133719.hmd
r133722.hmd
r133725.hmd
r133728.hmd
r133731.hmd
r133734.hmd
r133738.hmd
r133741.hmd
r133744.hmd
r133747.hmd
r133750.hmd
r133753.hmd
r133756.hmd
r133759.hmd
r133763.hmd
r136709.hmd
r136713.hmd
r136716.hmd
r136719.hmd
r136722.hmd
r136725.hmd
r136728.hmd
r136731.hmd
r136734.hmd
r136738.hmd
r136741.hmd
r136744.hmd
r136747.hmd
r136750.hmd
r136753.hmd
r136756.hmd
r136759.hmd
r136763.hmd
r139709.hmd
r139713.hmd
r139716.hmd
r139719.hmd
r139722.hmd
r139725.hmd
r139728.hmd
r139731.hmd
r139734.hmd
r139738.hmd
r139741.hmd
r139744.hmd
r139747.hmd
r139750.hmd
r139753.hmd
r139756.hmd
r139759.hmd
r139763.hmd
r142709.hmd
r142713.hmd
r142716.hmd
r142719.hmd
r142722.hmd
r142725.hmd
r142728.hmd
r142731.hmd
r142734.hmd
r142738.hmd
r142741.hmd
r142744.hmd
r142747.hmd
r142750.hmd
r142753.hmd
r142756.hmd
r142759.hmd
r142763.hmd
r145709.hmd
r145713.hmd
r145716.hmd
r145719.hmd
r145722.hmd
r145725.hmd
r145728.hmd
r145731.hmd
r145734.hmd
r145738.hmd
r145741.hmd
r145744.hmd
r145747.hmd
r145750.hmd
r145753.hmd
r145756.hmd
r145759.hmd
r145763.hmd
r48709.hmd
r48713.hmd
r48716.hmd
r48719.hmd
r48722.hmd
r48725.hmd
r48728.hmd
r48731.hmd
r48734.hmd
r48738.hmd
r48741.hmd
r48744.hmd
r48747.hmd
r48750.hmd
r48753.hmd
r48756.hmd
r48759.hmd
r48763.hmd
r52709.hmd
r52713.hmd
r52716.hmd
r52719.hmd
r52722.hmd
r52725.hmd
r52728.hmd
r52731.hmd
r52734.hmd
r52738.hmd
r52741.hmd
r52744.hmd
r52747.hmd
r52750.hmd
r52753.hmd
r52756.hmd
r52759.hmd
r52763.hmd
r55709.hmd
r55713.hmd
r55716.hmd
r55719.hmd
r55722.hmd
r55725.hmd
r55728.hmd
r55731.hmd
r55734.hmd
r55738.hmd
r55741.hmd
r55744.hmd
r55747.hmd
r55750.hmd
r55753.hmd
r55756.hmd
r55759.hmd
r55763.hmd
r58709.hmd
r58713.hmd
r58716.hmd
r58719.hmd
r58722.hmd
r58725.hmd
r58728.hmd
r58731.hmd
r58734.hmd
r58738.hmd
r58741.hmd
r58744.hmd
r58747.hmd
r58750.hmd
r58753.hmd
r58756.hmd
r58759.hmd
r58763.hmd
r61709.hmd
r61713.hmd
r61716.hmd
r61719.hmd
r61722.hmd
r61725.hmd
r61728.hmd
r61731.hmd
r61734.hmd
r61738.hmd
r61741.hmd
r61744.hmd
r61747.hmd
r61750.hmd
r61753.hmd
r61756.hmd
r61759.hmd
r61763.hmd
r64709.hmd
r64713.hmd
r64716.hmd
r64719.hmd
r64722.hmd
r64725.hmd
r64728.hmd
r64731.hmd
r64734.hmd
r64738.hmd
r64741.hmd
r64744.hmd
r64747.hmd
r64750.hmd
r64753.hmd
r64756.hmd
r64759.hmd
r64763.hmd
r67709.hmd
r67713.hmd
r67716.hmd
r67719.hmd
r67722.hmd
r67725.hmd
r67728.hmd
r67731.hmd
r67734.hmd
r67738.hmd
r67741.hmd
r67744.hmd
r67747.hmd
r67750.hmd
r67753.hmd
r67756.hmd
r67759.hmd
r67763.hmd
r70709.hmd
r70713.hmd
r70716.hmd
r70719.hmd
r70722.hmd
r70725.hmd
r70728.hmd
r70731.hmd
r70734.hmd
r70738.hmd
r70741.hmd
r70744.hmd
r70747.hmd
r70750.hmd
r70753.hmd
r70756.hmd
r70759.hmd
r70763.hmd
r73709.hmd
r73713.hmd
r73716.hmd
r73719.hmd
r73722.hmd
r73725.hmd
r73728.hmd
r73731.hmd
r73734.hmd
r73738.hmd
r73741.hmd
r73744.hmd
r73747.hmd
r73750.hmd
r73753.hmd
r73756.hmd
r73759.hmd
r73763.hmd
r76709.hmd
r76713.hmd
r76716.hmd
r76719.hmd
r76722.hmd
r76725.hmd
r76728.hmd
r76731.hmd
r76734.hmd
r76738.hmd
r76741.hmd
r76744.hmd
r76747.hmd
r76750.hmd
r76753.hmd
r76756.hmd
r76759.hmd
r76763.hmd
r80709.hmd
r80713.hmd
r80716.hmd
r80719.hmd
r80722.hmd
r80725.hmd
r80728.hmd
r80731.hmd
r80734.hmd
r80738.hmd
r80741.hmd
r80744.hmd
r80747.hmd
r80750.hmd
r80753.hmd
r80756.hmd
r80759.hmd
r80763.hmd
r83709.hmd
r83713.hmd
r83716.hmd
r83719.hmd
r83722.hmd
r83725.hmd
r83728.hmd
r83731.hmd
r83734.hmd
r83738.hmd
r83741.hmd
r83744.hmd
r83747.hmd
r83750.hmd
r83753.hmd
r83756.hmd
r83759.hmd
r83763.hmd
r86709.hmd
r86713.hmd
r86716.hmd
r86719.hmd
r86722.hmd
r86725.hmd
r86728.hmd
r86731.hmd
r86734.hmd
r86738.hmd
r86741.hmd
r86744.hmd
r86747.hmd
r86750.hmd
r86753.hmd
r86756.hmd
r86759.hmd
r86763.hmd
r89709.hmd
r89713.hmd
r89716.hmd
r89719.hmd
r89722.hmd
r89725.hmd
r89728.hmd
r89731.hmd
r89734.hmd
r89738.hmd
r89741.hmd
r89744.hmd
r89747.hmd
r89750.hmd
r89753.hmd
r89756.hmd
r89759.hmd
r89763.hmd
r92709.hmd
r92713.hmd
r92716.hmd
r92719.hmd
r92722.hmd
r92725.hmd
r92728.hmd
r92731.hmd
r92734.hmd
r92738.hmd
r92741.hmd
r92744.hmd
r92747.hmd
r92750.hmd
r92753.hmd
r92756.hmd
r92759.hmd
r92763.hmd
r95709.hmd
r95713.hmd
r95716.hmd
r95719.hmd
r95722.hmd
r95725.hmd
r95728.hmd
r95731.hmd
r95734.hmd
r95738.hmd
r95741.hmd
r95744.hmd
r95747.hmd
r95750.hmd
r95753.hmd
r95756.hmd
r95759.hmd
r95763.hmd
r98709.hmd
r98713.hmd
r98716.hmd
r98719.hmd
r98722.hmd
r98725.hmd
r98728.hmd
r98731.hmd
r98734.hmd
r98738.hmd
r98741.hmd
r98744.hmd
r98747.hmd
r98750.hmd
r98753.hmd
r98756.hmd
r98759.hmd
r98763.hmd
