hru.con: written by SWAT+ editor v1.2.3 on 2020-11-06 14:57
      id  name                gis_id          area           lat           lon          elev       hru               wst       cst      ovfl      rule   out_tot  
       1  hru001                   1  344261.06202      -5.43647     -74.54023     119.14505         1      sta546s7469w         0         0         0         0  
       2  hru002                   2  442208.13672      -5.48054     -74.56713     111.22553         2      sta546s7469w         0         0         0         0  
       3  hru003                   3   11982.61069      -4.92715     -73.83375     113.12500         3      sta484s7375w         0         0         0         0  
       4  hru004                   4    9004.17441      -4.92987     -73.83136     106.07266         4      sta484s7375w         0         0         0         0  
       5  hru005                   5  243664.93207      -6.18889     -73.73528     181.05026         5      sta609s7375w         0         0         0         0  
       6  hru006                   6  328836.90792      -6.14424     -73.74012     166.91492         6      sta609s7375w         0         0         0         0  
       7  hru007                   7  170414.49334      -6.13219     -73.73907     159.42793         7      sta609s7375w         0         0         0         0  
       8  hru008                   8  563834.24302      -6.91228     -74.30137     209.58244         8      sta702s7438w         0         0         0         0  
       9  hru009                   9  618370.52227      -6.98941     -74.22767     239.90783         9      sta702s7438w         0         0         0         0  
      10  hru010                  10  314749.04724      -6.95635     -74.25921     216.25940        10      sta702s7438w         0         0         0         0  
      11  hru011                  11  518987.09357      -6.19748     -75.09096     134.78903        11      sta609s7500w         0         0         0         0  
      12  hru012                  12  758524.57022      -6.24811     -75.14579     148.97329        12      sta640s7500w         0         0         0         0  
      13  hru013                  13  239860.65188      -6.24437     -75.26690     173.50849        13      sta609s7531w         0         0         0         0  
      14  hru014                  14   95484.26177      -7.46515     -75.97794    1081.64047        14      sta734s7594w         0         0         0         0  
      15  hru015                  15  444759.29790      -7.49598     -75.99076     806.88710        15      sta765s7594w         0         0         0         0  
      16  hru016                  16  137895.23767      -7.48514     -75.98597     609.92498        16      sta734s7594w         0         0         0         0  
      17  hru017                  17  211621.01814      -7.56360     -75.40416     182.80986        17      sta765s7531w         0         0         0         0  
      18  hru018                  18   95227.02144      -7.56243     -75.41353     181.73081        18      sta765s7531w         0         0         0         0  
      19  hru019                  19   72533.03493      -7.57338     -75.49660     234.44860        19      sta765s7562w         0         0         0         0  
      20  hru020                  20   81834.36084      -7.43674     -74.75252     237.59144        20      sta734s7469w         0         0         0         0  
      21  hru021                  21   20554.88251      -7.32437     -74.65494     350.78793        21      sta734s7469w         0         0         0         0  
      22  hru022                  22   37323.83373      -7.44682     -74.75781     209.99270        22      sta734s7469w         0         0         0         0  
      23  hru023                  23   48249.48654      -7.46477     -74.77669     208.77220        23      sta734s7469w         0         0         0         0  
      24  hru024                  24  432210.40829      -7.72303     -74.20677     246.02538        24      sta765s7406w         0         0         0         0  
      25  hru025                  25  199788.66659      -7.73436     -74.22549     223.85547        25      sta765s7438w         0         0         0         0  
      26  hru026                  26  325674.97746      -7.74564     -74.23923     228.84284        26      sta765s7438w         0         0         0         0  
      27  hru027                  27  142917.31628      -7.72105     -74.66265     210.98507        27      sta765s7469w         0         0         0         0  
      28  hru028                  28  128289.77733      -7.74871     -74.65710     193.91260        28      sta765s7469w         0         0         0         0  
      29  hru029                  29   68698.20818      -7.73534     -74.66517     188.53563        29      sta765s7469w         0         0         0         0  
      30  hru030                  30  190083.47796      -8.10454     -75.58387     264.08083        30      sta796s7562w         0         0         0         0  
      31  hru031                  31   86698.61821      -8.09944     -75.56234     352.36349        31      sta796s7562w         0         0         0         0  
      32  hru032                  32  110406.05107      -8.08526     -75.59269     227.96464        32      sta796s7562w         0         0         0         0  
      33  hru033                  33  155501.30473      -8.08212     -75.61813     235.88828        33      sta796s7562w         0         0         0         0  
      34  hru034                  34  268197.37096      -8.20962     -73.79864     254.75019        34      sta827s7375w         0         0         0         0  
      35  hru035                  35  171422.47734      -8.20237     -73.81110     241.21344        35      sta827s7375w         0         0         0         0  
      36  hru036                  36  118902.20351      -8.20802     -73.81455     231.16854        36      sta827s7375w         0         0         0         0  
      37  hru037                  37  278206.10088      -8.67702     -75.34281     274.63573        37      sta859s7531w         0         0         0         0  
      38  hru038                  38  214567.01590      -8.63141     -75.35412     256.60573        38      sta859s7531w         0         0         0         0  
      39  hru039                  39  496794.47311      -8.69927     -75.35501     300.31954        39      sta859s7531w         0         0         0         0  
      40  hru040                  40  135485.32468      -8.70912     -75.40259     381.88194        40      sta859s7531w         0         0         0         0  
      41  hru041                  41  358157.41726      -9.22139     -73.57074     278.55744        41      sta921s7344w         0         0         0         0  
      42  hru042                  42  668090.91600      -9.02348     -73.67793     227.24832        42      sta890s7375w         0         0         0         0  
      43  hru043                  43  317487.41063      -9.08166     -73.64938     228.71559        43      sta921s7375w         0         0         0         0  
      44  hru044                  44  139684.97885      -8.97006     -74.94659     237.20967        44      sta890s7500w         0         0         0         0  
      45  hru045                  45   62278.03494      -8.96762     -74.95979     217.53545        45      sta890s7500w         0         0         0         0  
      46  hru046                  46   83387.21944      -8.95450     -74.93900     224.57421        46      sta890s7500w         0         0         0         0  
      47  hru047                  47  380591.54494      -9.96184     -73.72104     273.45827        47      sta984s7375w         0         0         0         0  
      48  hru048                  48  891754.32847     -10.01847     -73.74570     279.71036        48     sta1015s7375w         0         0         0         0  
      49  hru049                  49  845627.79115      -9.98593     -73.67492     311.57768        49      sta984s7375w         0         0         0         0  
      50  hru050                  50     216.86024      -8.77617     -74.50947     144.52632        50      sta890s7438w         0         0         0         0  
      51  hru051                  51      34.24109      -8.78033     -74.51156     159.00000        51      sta890s7438w         0         0         0         0  
      52  hru052                  52   70853.35501      -9.21879     -75.07870     253.09669        52      sta921s7500w         0         0         0         0  
      53  hru053                  53   34362.40922      -9.21708     -75.10042     229.08544        53      sta921s7500w         0         0         0         0  
      54  hru054                  54   38460.45375      -9.22175     -75.12150     242.34065        54      sta921s7500w         0         0         0         0  
      55  hru055                  55  340192.23376     -10.08897     -75.64258    2309.81556        55     sta1015s7562w         0         0         0         0  
      56  hru056                  56  425964.18872     -10.05582     -75.64961    2394.90116        56     sta1015s7562w         0         0         0         0  
      57  hru057                  57  292605.96391     -10.36407     -74.76905    1109.48456        57     sta1046s7469w         0         0         0         0  
      58  hru058                  58  1074999.48079     -10.28843     -74.63692    1057.33124        58     sta1015s7469w         0         0         0         0  
      59  hru059                  59  316194.19131     -10.30308     -74.58981    1031.97400        59     sta1015s7469w         0         0         0         0  
      60  hru060                  60  112914.85701     -10.55489     -72.88547     319.51385        60     sta1046s7281w         0         0         0         0  
      61  hru061                  61  122141.00264     -10.55537     -72.90083     325.37600        61     sta1046s7281w         0         0         0         0  
      62  hru062                  62  274665.54396     -10.55723     -72.87321     345.60886        62     sta1046s7281w         0         0         0         0  
      63  hru063                  63   71968.05014     -10.58388     -72.72805     396.12834        63     sta1046s7281w         0         0         0         0  
      64  hru064                  64  958061.13637     -11.28500     -75.44606    4114.95129        64     sta1140s7531w         0         0         0         0  
      65  hru065                  65  871971.98647     -11.29016     -75.40042    4120.69533        65     sta1140s7531w         0         0         0         0  
      66  hru066                  66   30422.07285     -10.88174     -73.52222     316.09628        66     sta1077s7344w         0         0         0         0  
      67  hru067                  67   57266.05727     -10.88378     -73.52736     330.24702        67     sta1077s7344w         0         0         0         0  
      68  hru068                  68   16492.49135     -10.88024     -73.52361     303.35015        68     sta1077s7344w         0         0         0         0  
      69  hru069                  69    8536.64003     -10.62018     -73.76480     291.36255        69     sta1077s7375w         0         0         0         0  
      70  hru070                  70    3809.17802     -10.64406     -73.78276     243.63393        70     sta1077s7375w         0         0         0         0  
      71  hru071                  71   13842.28084     -10.63034     -73.76907     285.99017        71     sta1077s7375w         0         0         0         0  
      72  hru072                  72    3673.13595     -10.62620     -73.76099     303.71296        72     sta1077s7375w         0         0         0         0  
      73  hru073                  73  1223008.37563     -12.09857     -75.70801    4559.67727        73     sta1202s7562w         0         0         0         0  
      74  hru074                  74  459501.55135     -12.05149     -75.75511    4527.60571        74     sta1202s7562w         0         0         0         0  
      75  hru075                  75  276172.98143     -12.08553     -75.72082    4613.84261        75     sta1202s7562w         0         0         0         0  
      76  hru076                  76  429270.93603     -11.28547     -72.93914     468.64982        76     sta1140s7281w         0         0         0         0  
      77  hru077                  77  1158238.81854     -11.17694     -72.96056     402.11482        77     sta1108s7281w         0         0         0         0  
      78  hru078                  78  525722.07721     -11.18245     -72.97727     380.01743        78     sta1108s7312w         0         0         0         0  
      79  hru079                  79  447070.04671     -11.14636     -72.91362     372.75994        79     sta1108s7281w         0         0         0         0  
      80  hru080                  80  267638.22872     -11.26059     -73.97573    1225.02250        80     sta1140s7406w         0         0         0         0  
      81  hru081                  81   48000.00218     -11.21424     -74.03294    1115.02548        81     sta1108s7406w         0         0         0         0  
      82  hru082                  82  140361.78982     -11.30504     -73.91781    1347.16968        82     sta1140s7406w         0         0         0         0  
      83  hru083                  83  561422.73616     -11.83937     -74.05077    1343.96075        83     sta1171s7406w         0         0         0         0  
      84  hru084                  84  258297.41079     -11.91707     -74.12263    1867.16240        84     sta1202s7406w         0         0         0         0  
      85  hru085                  85  131180.77733     -11.86368     -73.98090    1121.29106        85     sta1171s7406w         0         0         0         0  
      86  hru086                  86  502715.66113     -12.23692     -74.59721    3073.47361        86     sta1233s7469w         0         0         0         0  
      87  hru087                  87  309246.93084     -12.31159     -74.60350    3483.71381        87     sta1233s7469w         0         0         0         0  
      88  hru088                  88  215974.13531     -12.79226     -73.74656    2039.31404        88     sta1264s7375w         0         0         0         0  
      89  hru089                  89  457486.24772     -12.86432     -73.70855    2494.32928        89     sta1296s7375w         0         0         0         0  
      90  hru090                  90  145301.77398     -13.32619     -71.57964    4130.05907        90     sta1327s7156w         0         0         0         0  
      91  hru091                  91  333746.85137     -13.47062     -71.48852    4211.77978        91     sta1358s7156w         0         0         0         0  
      92  hru092                  92   70909.54942     -13.56748     -71.41608    4189.86688        92     sta1358s7156w         0         0         0         0  
      93  hru093                  93  839256.79164     -13.47631     -72.00528    4275.42592        93     sta1358s7188w         0         0         0         0  
      94  hru094                  94  1295758.72392     -13.75216     -71.65179    4339.45052        94     sta1389s7156w         0         0         0         0  
      95  hru095                  95  439091.57605     -13.16420     -74.72651    4457.21276        95     sta1327s7469w         0         0         0         0  
      96  hru096                  96  115799.68099     -13.17394     -74.71434    4399.22837        96     sta1327s7469w         0         0         0         0  
      97  hru097                  97  125983.22324     -13.14204     -74.75700    4489.59584        97     sta1327s7469w         0         0         0         0  
      98  hru098                  98  1150775.17583     -13.69485     -73.93202    3765.96803        98     sta1358s7406w         0         0         0         0  
      99  hru099                  99  894714.44074     -13.55787     -73.79494    3168.97961        99     sta1358s7375w         0         0         0         0  
     100  hru100                 100  277633.83704     -13.81402     -73.95932    3910.62918       100     sta1389s7406w         0         0         0         0  
     101  hru101                 101  899172.88141     -13.70995     -72.42323    3623.32334       101     sta1358s7250w         0         0         0         0  
     102  hru102                 102  1421870.03124     -13.97146     -72.08962    3977.05371       102     sta1389s7219w         0         0         0         0  
     103  hru103                 103  332543.11105     -14.13011     -71.91735    4033.55254       103     sta1421s7188w         0         0         0         0  
     104  hru104                 104    5537.07338     -13.40941     -73.18233    2573.60307       104     sta1327s7312w         0         0         0         0  
     105  hru105                 105    2222.11498     -13.39041     -73.18011    2603.22951       105     sta1327s7312w         0         0         0         0  
     106  hru106                 106    1736.40678     -13.43436     -73.18386    1154.87413       106     sta1358s7312w         0         0         0         0  
     107  hru107                 107  233207.36778     -14.20312     -72.90098    4200.15929       107     sta1421s7281w         0         0         0         0  
     108  hru108                 108  476324.86400     -14.34234     -72.88653    4444.40244       108     sta1421s7281w         0         0         0         0  
     109  hru109                 109   97494.23662     -14.39767     -72.86955    4494.10735       109     sta1452s7281w         0         0         0         0  
