hyd-sed-lte.cha: written by SWAT+ editor v1.2.3 on 2020-11-06 14:57
name                         order            wd            dp           slp           len          mann             k     erod_fact      cov_fact        hc_cov        eq_slp           d50          clay        carbon        dry_bd      side_slp      bed_load        t_conc     shear_bnk       hc_erod         hc_ht        hc_len           kfp   description
hydcha01                     first    2725.63706      21.40567       0.00001      15.75360       0.05000       1.00000       0.01000       0.00500       0.00000       0.00100      12.00000      50.00000       0.04000       1.00000       0.50000       0.50000      10.00000       0.75000       0.10000       0.30000       0.30000       5.00000
hydcha02                     first     900.58690      14.21651       0.00007     183.61300       0.06000       1.00000       0.01000       0.00500       0.00000       0.00100      12.00000      50.00000       0.04000       1.00000       0.50000       0.50000      10.00000       0.75000       0.10000       0.30000       0.30000       5.00000
hydcha03                     first     271.11507       4.59536       0.00020     112.60000       0.05000       1.00000       0.01000       0.00500       0.00000       0.00100      12.00000      50.00000       0.04000       1.00000       0.50000       0.50000      10.00000       0.75000       0.10000       0.30000       0.30000       5.00000
hydcha04                     first    3223.79387      17.51511       0.00005     414.32450       0.05500       1.00000       0.01000       0.00500       0.00000       0.00100      12.00000      50.00000       0.04000       1.00000       0.50000       0.50000      10.00000       0.75000       0.10000       0.30000       0.30000       5.00000
hydcha05                     first     412.77630       6.08172       0.00034     157.48140       0.05000       1.00000       0.01000       0.00500       0.00000       0.00100      12.00000      50.00000       0.04000       1.00000       0.50000       0.50000      10.00000       0.75000       0.10000       0.30000       0.30000       5.00000
hydcha06                     first    3088.20657      17.05193       0.00004      50.74660       0.05500       1.00000       0.01000       0.00500       0.00000       0.00100      12.00000      50.00000       0.04000       1.00000       0.50000       0.50000      10.00000       0.75000       0.10000       0.30000       0.30000       5.00000
hydcha07                     first    3065.09684      17.00843       0.00004      54.39950       0.05500       1.00000       0.01000       0.00500       0.00000       0.00100      12.00000      50.00000       0.04000       1.00000       0.50000       0.50000      10.00000       0.75000       0.10000       0.30000       0.30000       5.00000
hydcha08                     first    3018.07947      16.74715       0.00006     131.36810       0.05500       1.00000       0.01000       0.00500       0.00000       0.00100      12.00000      50.00000       0.04000       1.00000       0.50000       0.50000      10.00000       0.75000       0.10000       0.30000       0.30000       5.00000
hydcha09                     first    2923.64564      16.43379       0.00007      80.87270       0.05500       1.00000       0.01000       0.00500       0.00000       0.00100      12.00000      50.00000       0.04000       1.00000       0.50000       0.50000      10.00000       0.75000       0.10000       0.30000       0.30000       5.00000
hydcha10                     first    2289.44179      14.25621       0.00006      67.09400       0.05500       1.00000       0.01000       0.00500       0.00000       0.00100      12.00000      50.00000       0.04000       1.00000       0.50000       0.50000      10.00000       0.75000       0.10000       0.30000       0.30000       5.00000
hydcha11                     first     347.77110       5.42516       0.00053     167.58670       0.05000       1.00000       0.01000       0.00500       0.00000       0.00100      12.00000      50.00000       0.04000       1.00000       0.50000       0.50000      10.00000       0.75000       0.10000       0.30000       0.30000       5.00000
hydcha12                     first     224.55386       4.05288       0.00043      51.10980       0.05000       1.00000       0.01000       0.00500       0.00000       0.00100      12.00000      50.00000       0.04000       1.00000       0.50000       0.50000      10.00000       0.75000       0.10000       0.30000       0.30000       5.00000
hydcha13                     first     256.67340       4.43068       0.00109      56.06770       0.05000       1.00000       0.01000       0.00500       0.00000       0.00100      12.00000      50.00000       0.04000       1.00000       0.50000       0.50000      10.00000       0.75000       0.10000       0.30000       0.30000       5.00000
hydcha14                     first    2187.48130      18.48615       0.00001       1.79960       0.05000       1.00000       0.01000       0.00500       0.00000       0.00100      12.00000      50.00000       0.04000       1.00000       0.50000       0.50000      10.00000       0.75000       0.10000       0.30000       0.30000       5.00000
hydcha15                     first    2026.79743      14.06941       0.00012     407.81610       0.05500       1.00000       0.01000       0.00500       0.00000       0.00100      12.00000      50.00000       0.04000       1.00000       0.50000       0.50000      10.00000       0.75000       0.10000       0.30000       0.30000       5.00000
hydcha16                     first     611.12933       5.50022       0.00027     112.15890       0.07500       1.00000       0.01000       0.00500       0.00000       0.00100      12.00000      50.00000       0.04000       1.00000       0.50000       0.50000      10.00000       0.75000       0.10000       0.30000       0.30000       5.00000
hydcha17                     first    1435.01882       7.57706       0.00034      62.12930       0.10000       1.00000       0.01000       0.00500       0.00000       0.00100      12.00000      50.00000       0.04000       1.00000       0.50000       0.50000      10.00000       0.75000       0.10000       0.30000       0.30000       5.00000
hydcha18                     first    1105.95944       6.37470       0.00025     202.22940       0.10000       1.00000       0.01000       0.00500       0.00000       0.00100      12.00000      50.00000       0.04000       1.00000       0.50000       0.50000      10.00000       0.75000       0.10000       0.30000       0.30000       5.00000
hydcha19                     first     690.17234       4.65233       0.00297     128.27510       0.10000       1.00000       0.01000       0.00500       0.00000       0.00100      12.00000      50.00000       0.04000       1.00000       0.50000       0.50000      10.00000       0.75000       0.10000       0.30000       0.30000       5.00000
hydcha20                     first     386.88155       5.82464       0.00026     156.53460       0.05000       1.00000       0.01000       0.00500       0.00000       0.00100      12.00000      50.00000       0.04000       1.00000       0.50000       0.50000      10.00000       0.75000       0.10000       0.30000       0.30000       5.00000
hydcha21                     first    1902.96115      16.84626       0.00057      20.88760       0.05000       1.00000       0.01000       0.00500       0.00000       0.00100      12.00000      50.00000       0.04000       1.00000       0.50000       0.50000      10.00000       0.75000       0.10000       0.30000       0.30000       5.00000
hydcha22                     first    1520.71250      14.50713       0.00075     158.31780       0.05000       1.00000       0.01000       0.00500       0.00000       0.00100      12.00000      50.00000       0.04000       1.00000       0.50000       0.50000      10.00000       0.75000       0.10000       0.30000       0.30000       5.00000
hydcha23                     first    1356.14513      13.44067       0.00084     173.19310       0.05000       1.00000       0.01000       0.00500       0.00000       0.00100      12.00000      50.00000       0.04000       1.00000       0.50000       0.50000      10.00000       0.75000       0.10000       0.30000       0.30000       5.00000
hydcha24                     first    1132.15693      13.54870       0.00031      47.64370       0.08500       1.00000       0.01000       0.00500       0.00000       0.00100      12.00000      50.00000       0.04000       1.00000       0.50000       0.50000      10.00000       0.75000       0.10000       0.30000       0.30000       5.00000
hydcha25                     first     875.89229      10.04270       0.00115     324.26400       0.05000       1.00000       0.01000       0.00500       0.00000       0.00100      12.00000      50.00000       0.04000       1.00000       0.50000       0.50000      10.00000       0.75000       0.10000       0.30000       0.30000       5.00000
hydcha26                     first     465.65588       6.59063       0.00281     171.71090       0.05000       1.00000       0.01000       0.00500       0.00000       0.00100      12.00000      50.00000       0.04000       1.00000       0.50000       0.50000      10.00000       0.75000       0.10000       0.30000       0.30000       5.00000
hydcha27                     first     234.10162       4.16696       0.00108      37.00490       0.05000       1.00000       0.01000       0.00500       0.00000       0.00100      12.00000      50.00000       0.04000       1.00000       0.50000       0.50000      10.00000       0.75000       0.10000       0.30000       0.30000       5.00000
hydcha28                     first     681.39028       8.49469       0.00626     278.12000       0.05000       1.00000       0.01000       0.00500       0.00000       0.00100      12.00000      50.00000       0.04000       1.00000       0.50000       0.50000      10.00000       0.75000       0.10000       0.30000       0.30000       5.00000
hydcha29                     first     993.11379      10.91984       0.00403     196.01630       0.05000       1.00000       0.01000       0.00500       0.00000       0.00100      12.00000      50.00000       0.04000       1.00000       0.50000       0.50000      10.00000       0.75000       0.10000       0.30000       0.30000       5.00000
hydcha30                     first     510.77581       7.00977       0.00688     407.10630       0.05000       1.00000       0.01000       0.00500       0.00000       0.00100      12.00000      50.00000       0.04000       1.00000       0.50000       0.50000      10.00000       0.75000       0.10000       0.30000       0.30000       5.00000
hydcha31                     first     226.35366       4.07451       0.00361      48.48640       0.05000       1.00000       0.01000       0.00500       0.00000       0.00100      12.00000      50.00000       0.04000       1.00000       0.50000       0.50000      10.00000       0.75000       0.10000       0.30000       0.30000       5.00000
hydcha32                     first     485.02953       6.77219       0.00495     341.49310       0.05000       1.00000       0.01000       0.00500       0.00000       0.00100      12.00000      50.00000       0.04000       1.00000       0.50000       0.50000      10.00000       0.75000       0.10000       0.30000       0.30000       5.00000
hydcha33                     first     683.58972       8.51296       0.00001       8.77660       0.05000       1.00000       0.01000       0.00500       0.00000       0.00100      12.00000      50.00000       0.04000       1.00000       0.50000       0.50000      10.00000       0.75000       0.10000       0.30000       0.30000       5.00000
hydcha34                     first     581.95528       7.64675       0.00815     326.99460       0.05000       1.00000       0.01000       0.00500       0.00000       0.00100      12.00000      50.00000       0.04000       1.00000       0.50000       0.50000      10.00000       0.75000       0.10000       0.30000       0.30000       5.00000
hydcha35                     first     284.91964       4.75005       0.01142      95.29580       0.05000       1.00000       0.01000       0.00500       0.00000       0.00100      12.00000      50.00000       0.04000       1.00000       0.50000       0.50000      10.00000       0.75000       0.10000       0.30000       0.30000       5.00000
hydcha36                     first     537.32009       7.25057       0.00499     281.76980       0.05000       1.00000       0.01000       0.00500       0.00000       0.00100      12.00000      50.00000       0.04000       1.00000       0.50000       0.50000      10.00000       0.75000       0.10000       0.30000       0.30000       5.00000
hydcha37                     first     257.29417       4.43783       0.00001       6.82630       0.05000       1.00000       0.01000       0.00500       0.00000       0.00100      12.00000      50.00000       0.04000       1.00000       0.50000       0.50000      10.00000       0.75000       0.10000       0.30000       0.30000       5.00000
