landuse.lum: written by SWAT+ editor v1.2.3 on 2020-11-06 14:57
name                         cal_group          plnt_com               mgt               cn2         cons_prac             urban            urb_ro           ov_mann              tile               sep               vfs              grww               bmp  
wetf_lum                          null         wetf_comm              null            wood_p     up_down_slope              null              null        forest_med              null              null              null              null              null  
frse_lum                          null         frse_comm              null            wood_f     up_down_slope              null              null      forest_heavy              null              null              null              null              null  
frst_lum                          null         frst_comm              null            wood_f     up_down_slope              null              null        forest_med              null              null              null              null              null  
watr_lum                          null         watr_comm              null        rc_strow_g     up_down_slope              null              null    convtill_nores              null              null              null              null              null  
rnge_lum                          null         rnge_comm              null           pastg_f     up_down_slope              null              null      range_sparse              null              null              null              null              null  
