ls_unit.def: written by SWAT+ editor v1.2.3 on 2020-11-06 14:57
37
      id              name          area  elem_tot  elements  
       1            rtu010   20986.78509         2         3        -4  
       2            rtu020  786469.19874         2         1        -2  
       3            rtu030  742916.33333         2         5        -7  
       4            rtu040  1517372.31565         2        11       -13  
       5            rtu050  1496953.81252         2         8       -10  
       6            rtu060  379381.07451         2        17       -19  
       7            rtu070  187962.56361         2        20       -23  
       8            rtu080  339905.30179         2        27       -29  
       9            rtu090  957674.05234         2        24       -26  
      10            rtu100  558522.05182         2        34       -36  
      11            rtu110  1125052.91457         2        37       -40  
      12            rtu120  542689.45198         2        30       -33  
      13            rtu130  678138.79734         2        14       -16  
      14            rtu140     251.10133         2        50       -51  
      15            rtu150  2117973.66453         2        47       -49  
      16            rtu160  285350.23323         2        44       -46  
      17            rtu170  143676.21798         2        52       -54  
      18            rtu180  1683799.63599         2        57       -59  
      19            rtu190  766156.42249         2        55       -56  
      20            rtu200  1343735.74389         2        41       -43  
      21            rtu210   29861.23484         2        69       -72  
      22            rtu220  456000.02073         2        80       -82  
      23            rtu230  950900.92428         2        83       -85  
      24            rtu240  104180.62148         2        66       -68  
      25            rtu250  2560301.87846         2        76       -79  
      26            rtu260  1830033.12281         2        64       -65  
      27            rtu270  581689.45375         2        60       -63  
      28            rtu280  811962.59197         2        86       -87  
      29            rtu290  673460.38303         2        88       -89  
      30            rtu300  2135015.51553         2        93       -94  
      31            rtu310  549958.17478         2        90       -92  
      32            rtu320  1958682.90839         2        73       -75  
      33            rtu330    9495.59515         2       104      -106  
      34            rtu340  2653586.02367         2       101      -103  
      35            rtu350  807026.46840         2       107      -109  
      36            rtu360  2323123.45359         2        98      -100  
      37            rtu370  680874.48029         2        95       -97  
