ls_unit.ele: written by SWAT+ editor v1.2.3 on 2020-11-06 14:57
      id  name                   obj_typ  obj_typ_no      bsn_frac      sub_frac      reg_frac  
       1  hru001                     hru           1     9.8951E-3       0.43773       0.00000  
       2  hru002                     hru           2     1.2710E-2       0.56227       0.00000  
       3  hru003                     hru           3     3.4442E-4       0.57096       0.00000  
       4  hru004                     hru           4     2.5881E-4       0.42904       0.00000  
       5  hru005                     hru           5     7.0037E-3       0.32798       0.00000  
       6  hru006                     hru           6     9.4517E-3       0.44263       0.00000  
       7  hru007                     hru           7     4.8982E-3       0.22939       0.00000  
       8  hru008                     hru           8     1.6206E-2       0.37665       0.00000  
       9  hru009                     hru           9     1.7774E-2       0.41309       0.00000  
      10  hru010                     hru          10     9.0468E-3       0.21026       0.00000  
      11  hru011                     hru          11     1.4917E-2       0.34203       0.00000  
      12  hru012                     hru          12     2.1802E-2       0.49989       0.00000  
      13  hru013                     hru          13     6.8943E-3       0.15808       0.00000  
      14  hru014                     hru          14     2.7445E-3       0.14080       0.00000  
      15  hru015                     hru          15     1.2784E-2       0.65585       0.00000  
      16  hru016                     hru          16     3.9635E-3       0.20334       0.00000  
      17  hru017                     hru          17     6.0826E-3       0.55781       0.00000  
      18  hru018                     hru          18     2.7371E-3       0.25101       0.00000  
      19  hru019                     hru          19     2.0848E-3       0.19119       0.00000  
      20  hru020                     hru          20     2.3522E-3       0.43538       0.00000  
      21  hru021                     hru          21     5.9081E-4       0.10936       0.00000  
      22  hru022                     hru          22     1.0728E-3       0.19857       0.00000  
      23  hru023                     hru          23     1.3868E-3       0.25670       0.00000  
      24  hru024                     hru          24     1.2423E-2       0.45131       0.00000  
      25  hru025                     hru          25     5.7425E-3       0.20862       0.00000  
      26  hru026                     hru          26     9.3609E-3       0.34007       0.00000  
      27  hru027                     hru          27     4.1079E-3       0.42046       0.00000  
      28  hru028                     hru          28     3.6874E-3       0.37743       0.00000  
      29  hru029                     hru          29     1.9746E-3       0.20211       0.00000  
      30  hru030                     hru          30     5.4636E-3       0.35026       0.00000  
      31  hru031                     hru          31     2.4920E-3       0.15976       0.00000  
      32  hru032                     hru          32     3.1734E-3       0.20344       0.00000  
      33  hru033                     hru          33     4.4696E-3       0.28654       0.00000  
      34  hru034                     hru          34     7.7088E-3       0.48019       0.00000  
      35  hru035                     hru          35     4.9272E-3       0.30692       0.00000  
      36  hru036                     hru          36     3.4176E-3       0.21289       0.00000  
      37  hru037                     hru          37     7.9965E-3       0.24728       0.00000  
      38  hru038                     hru          38     6.1673E-3       0.19072       0.00000  
      39  hru039                     hru          39     1.4279E-2       0.44157       0.00000  
      40  hru040                     hru          40     3.8943E-3       0.12043       0.00000  
      41  hru041                     hru          41     1.0295E-2       0.26654       0.00000  
      42  hru042                     hru          42     1.9203E-2       0.49719       0.00000  
      43  hru043                     hru          43     9.1255E-3       0.23627       0.00000  
      44  hru044                     hru          44     4.0150E-3       0.48952       0.00000  
      45  hru045                     hru          45     1.7901E-3       0.21825       0.00000  
      46  hru046                     hru          46     2.3968E-3       0.29223       0.00000  
      47  hru047                     hru          47     1.0939E-2       0.17970       0.00000  
      48  hru048                     hru          48     2.5632E-2       0.42104       0.00000  
      49  hru049                     hru          49     2.4306E-2       0.39926       0.00000  
      50  hru050                     hru          50     6.2332E-6       0.86364       0.00000  
      51  hru051                     hru          51     9.8419E-7       0.13636       0.00000  
      52  hru052                     hru          52     2.0365E-3       0.49315       0.00000  
      53  hru053                     hru          53     9.8768E-4       0.23917       0.00000  
      54  hru054                     hru          54     1.1055E-3       0.26769       0.00000  
      55  hru055                     hru          55     9.7781E-3       0.44402       0.00000  
      56  hru056                     hru          56     1.2243E-2       0.55598       0.00000  
      57  hru057                     hru          57     8.4104E-3       0.17378       0.00000  
      58  hru058                     hru          58     3.0899E-2       0.63844       0.00000  
      59  hru059                     hru          59     9.0884E-3       0.18779       0.00000  
      60  hru060                     hru          60     3.2455E-3       0.19412       0.00000  
      61  hru061                     hru          61     3.5107E-3       0.20998       0.00000  
      62  hru062                     hru          62     7.8947E-3       0.47219       0.00000  
      63  hru063                     hru          63     2.0686E-3       0.12372       0.00000  
      64  hru064                     hru          64     2.7538E-2       0.52352       0.00000  
      65  hru065                     hru          65     2.5063E-2       0.47648       0.00000  
      66  hru066                     hru          66     8.7442E-4       0.29201       0.00000  
      67  hru067                     hru          67     1.6460E-3       0.54968       0.00000  
      68  hru068                     hru          68     4.7404E-4       0.15831       0.00000  
      69  hru069                     hru          69     2.4537E-4       0.28588       0.00000  
      70  hru070                     hru          70     1.0949E-4       0.12756       0.00000  
      71  hru071                     hru          71     3.9787E-4       0.46355       0.00000  
      72  hru072                     hru          72     1.0558E-4       0.12301       0.00000  
      73  hru073                     hru          73     3.5153E-2       0.62440       0.00000  
      74  hru074                     hru          74     1.3207E-2       0.23460       0.00000  
      75  hru075                     hru          75     7.9380E-3       0.14100       0.00000  
      76  hru076                     hru          76     1.2339E-2       0.16766       0.00000  
      77  hru077                     hru          77     3.3291E-2       0.45238       0.00000  
      78  hru078                     hru          78     1.5111E-2       0.20534       0.00000  
      79  hru079                     hru          79     1.2850E-2       0.17462       0.00000  
      80  hru080                     hru          80     7.6927E-3       0.58693       0.00000  
      81  hru081                     hru          81     1.3797E-3       0.10526       0.00000  
      82  hru082                     hru          82     4.0344E-3       0.30781       0.00000  
      83  hru083                     hru          83     1.6137E-2       0.59041       0.00000  
      84  hru084                     hru          84     7.4242E-3       0.27163       0.00000  
      85  hru085                     hru          85     3.7705E-3       0.13795       0.00000  
      86  hru086                     hru          86     1.4450E-2       0.61914       0.00000  
      87  hru087                     hru          87     8.8887E-3       0.38086       0.00000  
      88  hru088                     hru          88     6.2077E-3       0.32069       0.00000  
      89  hru089                     hru          89     1.3150E-2       0.67931       0.00000  
      90  hru090                     hru          90     4.1764E-3       0.26421       0.00000  
      91  hru091                     hru          91     9.5929E-3       0.60686       0.00000  
      92  hru092                     hru          92     2.0382E-3       0.12894       0.00000  
      93  hru093                     hru          93     2.4123E-2       0.39309       0.00000  
      94  hru094                     hru          94     3.7244E-2       0.60691       0.00000  
      95  hru095                     hru          95     1.2621E-2       0.64489       0.00000  
      96  hru096                     hru          96     3.3284E-3       0.17007       0.00000  
      97  hru097                     hru          97     3.6211E-3       0.18503       0.00000  
      98  hru098                     hru          98     3.3077E-2       0.49536       0.00000  
      99  hru099                     hru          99     2.5717E-2       0.38513       0.00000  
     100  hru100                     hru         100     7.9800E-3       0.11951       0.00000  
     101  hru101                     hru         101     2.5845E-2       0.33885       0.00000  
     102  hru102                     hru         102     4.0869E-2       0.53583       0.00000  
     103  hru103                     hru         103     9.5583E-3       0.12532       0.00000  
     104  hru104                     hru         104     1.5915E-4       0.58312       0.00000  
     105  hru105                     hru         105     6.3870E-5       0.23402       0.00000  
     106  hru106                     hru         106     4.9909E-5       0.18286       0.00000  
     107  hru107                     hru         107     6.7031E-3       0.28897       0.00000  
     108  hru108                     hru         108     1.3691E-2       0.59022       0.00000  
     109  hru109                     hru         109     2.8023E-3       0.12081       0.00000  
