object.cnt: written by SWAT+ editor v1.2.3 on 2020-11-06 14:57
name                   ls_area      tot_area       obj       hru      lhru       rtu       mfl       aqu       cha       res       rec      exco       dlr       can       pmp       out      lcha     aqu2d       hrd       wro  
UcayaliNoFp       34791120.52389  34791120.52389       258       109         0        37         0        38         0         0        37         0         0         0         0         0        37         0         0         0  
