om_water.ini: written by SWAT+ editor v1.2.3 on 2020-11-06 14:57
name                       flo           sed          orgn          sedp           no3          solp         chl_a           nh3           no2       cbn_bod        dis_ox           san           sil           cla           sag           lag           grv           tmp             c  
no_init                0.00000       0.00000       0.00000       0.00000       0.00000       0.00000       0.00000       0.00000       0.00000       0.00000       0.00000       0.00000       0.00000       0.00000       0.00000       0.00000       0.00000       0.00000       0.00000  
