pcp.cli: Precipitation file names - file written by SWAT+ editor 2020-10-09 17:59:46.084865
filename
p101516.pcp
p101519.pcp
p101522.pcp
p101525.pcp
p101528.pcp
p101531.pcp
p101534.pcp
p101538.pcp
p101541.pcp
p101544.pcp
p101547.pcp
p101550.pcp
p101553.pcp
p101556.pcp
p101559.pcp
p101562.pcp
p101566.pcp
p101569.pcp
p101572.pcp
p101575.pcp
p101578.pcp
p101581.pcp
p101584.pcp
p101588.pcp
p101591.pcp
p101594.pcp
p101597.pcp
p101600.pcp
p101603.pcp
p101606.pcp
p101609.pcp
p101612.pcp
p101616.pcp
p101619.pcp
p101622.pcp
p101625.pcp
p101628.pcp
p101631.pcp
p101634.pcp
p101638.pcp
p101641.pcp
p101644.pcp
p101647.pcp
p101650.pcp
p101653.pcp
p101656.pcp
p101659.pcp
p101662.pcp
p101666.pcp
p101669.pcp
p101672.pcp
p101675.pcp
p101678.pcp
p101681.pcp
p101684.pcp
p101688.pcp
p101691.pcp
p101694.pcp
p101697.pcp
p101700.pcp
p101703.pcp
p101706.pcp
p101709.pcp
p101712.pcp
p101716.pcp
p101719.pcp
p101722.pcp
p101725.pcp
p101728.pcp
p101731.pcp
p101734.pcp
p101738.pcp
p101741.pcp
p101744.pcp
p101747.pcp
p101750.pcp
p101753.pcp
p101756.pcp
p101759.pcp
p101762.pcp
p101766.pcp
p101769.pcp
p105522.pcp
p105525.pcp
p105528.pcp
p105531.pcp
p105534.pcp
p105538.pcp
p105541.pcp
p105544.pcp
p105547.pcp
p105550.pcp
p105553.pcp
p105556.pcp
p105559.pcp
p105562.pcp
p105566.pcp
p105569.pcp
p105572.pcp
p105575.pcp
p105578.pcp
p105581.pcp
p105584.pcp
p105588.pcp
p105591.pcp
p105594.pcp
p105597.pcp
p105600.pcp
p105603.pcp
p105606.pcp
p105609.pcp
p105612.pcp
p105616.pcp
p105619.pcp
p105622.pcp
p105625.pcp
p105628.pcp
p105631.pcp
p105634.pcp
p105638.pcp
p105641.pcp
p105644.pcp
p105647.pcp
p105650.pcp
p105653.pcp
p105656.pcp
p105659.pcp
p105662.pcp
p105666.pcp
p105669.pcp
p105672.pcp
p105675.pcp
p105678.pcp
p105681.pcp
p105684.pcp
p105688.pcp
p105691.pcp
p105694.pcp
p105697.pcp
p105700.pcp
p105703.pcp
p105706.pcp
p105709.pcp
p105712.pcp
p105716.pcp
p105719.pcp
p105722.pcp
p105725.pcp
p105728.pcp
p105731.pcp
p105734.pcp
p105738.pcp
p105741.pcp
p105744.pcp
p105747.pcp
p105750.pcp
p105753.pcp
p105756.pcp
p105759.pcp
p105762.pcp
p105766.pcp
p108522.pcp
p108525.pcp
p108528.pcp
p108531.pcp
p108534.pcp
p108538.pcp
p108541.pcp
p108544.pcp
p108547.pcp
p108550.pcp
p108553.pcp
p108556.pcp
p108559.pcp
p108562.pcp
p108566.pcp
p108569.pcp
p108572.pcp
p108575.pcp
p108578.pcp
p108581.pcp
p108584.pcp
p108588.pcp
p108591.pcp
p108594.pcp
p108597.pcp
p108600.pcp
p108603.pcp
p108606.pcp
p108609.pcp
p108612.pcp
p108616.pcp
p108619.pcp
p108622.pcp
p108625.pcp
p108628.pcp
p108631.pcp
p108634.pcp
p108638.pcp
p108641.pcp
p108644.pcp
p108647.pcp
p108650.pcp
p108653.pcp
p108656.pcp
p108659.pcp
p108662.pcp
p108666.pcp
p108669.pcp
p108672.pcp
p108675.pcp
p108678.pcp
p108681.pcp
p108684.pcp
p108688.pcp
p108691.pcp
p108694.pcp
p108697.pcp
p108700.pcp
p108703.pcp
p108706.pcp
p108709.pcp
p108712.pcp
p108716.pcp
p108719.pcp
p108722.pcp
p108725.pcp
p108728.pcp
p108731.pcp
p108734.pcp
p108738.pcp
p108741.pcp
p108744.pcp
p108747.pcp
p108750.pcp
p108753.pcp
p108756.pcp
p108759.pcp
p108762.pcp
p108766.pcp
p111522.pcp
p111525.pcp
p111528.pcp
p111531.pcp
p111534.pcp
p111538.pcp
p111541.pcp
p111544.pcp
p111547.pcp
p111550.pcp
p111553.pcp
p111556.pcp
p111559.pcp
p111562.pcp
p111566.pcp
p111569.pcp
p111572.pcp
p111575.pcp
p111578.pcp
p111581.pcp
p111584.pcp
p111588.pcp
p111591.pcp
p111594.pcp
p111597.pcp
p111600.pcp
p111603.pcp
p111606.pcp
p111609.pcp
p111612.pcp
p111616.pcp
p111619.pcp
p111622.pcp
p111625.pcp
p111628.pcp
p111631.pcp
p111634.pcp
p111638.pcp
p111641.pcp
p111644.pcp
p111647.pcp
p111650.pcp
p111653.pcp
p111656.pcp
p111659.pcp
p111662.pcp
p111666.pcp
p111669.pcp
p111672.pcp
p111675.pcp
p111678.pcp
p111681.pcp
p111684.pcp
p111688.pcp
p111691.pcp
p111694.pcp
p111697.pcp
p111700.pcp
p111703.pcp
p111706.pcp
p111709.pcp
p111712.pcp
p111716.pcp
p111719.pcp
p111722.pcp
p111725.pcp
p111728.pcp
p111731.pcp
p111734.pcp
p111738.pcp
p111741.pcp
p111744.pcp
p111747.pcp
p111750.pcp
p111753.pcp
p111756.pcp
p111759.pcp
p111762.pcp
p114522.pcp
p114525.pcp
p114528.pcp
p114531.pcp
p114534.pcp
p114538.pcp
p114541.pcp
p114544.pcp
p114547.pcp
p114550.pcp
p114553.pcp
p114556.pcp
p114559.pcp
p114562.pcp
p114566.pcp
p114569.pcp
p114572.pcp
p114575.pcp
p114578.pcp
p114581.pcp
p114584.pcp
p114588.pcp
p114591.pcp
p114594.pcp
p114597.pcp
p114600.pcp
p114603.pcp
p114606.pcp
p114609.pcp
p114612.pcp
p114616.pcp
p114619.pcp
p114622.pcp
p114625.pcp
p114628.pcp
p114631.pcp
p114634.pcp
p114638.pcp
p114641.pcp
p114644.pcp
p114647.pcp
p114650.pcp
p114653.pcp
p114656.pcp
p114659.pcp
p114662.pcp
p114666.pcp
p114669.pcp
p114672.pcp
p114675.pcp
p114678.pcp
p114681.pcp
p114684.pcp
p114688.pcp
p114691.pcp
p114694.pcp
p114697.pcp
p114700.pcp
p114703.pcp
p114706.pcp
p114709.pcp
p114712.pcp
p114716.pcp
p114719.pcp
p114722.pcp
p114725.pcp
p114728.pcp
p114731.pcp
p114734.pcp
p114738.pcp
p114741.pcp
p114744.pcp
p114747.pcp
p114750.pcp
p114753.pcp
p114756.pcp
p114759.pcp
p114762.pcp
p11488.pcp
p11491.pcp
p11494.pcp
p11497.pcp
p11500.pcp
p11503.pcp
p11506.pcp
p11509.pcp
p11512.pcp
p11516.pcp
p11519.pcp
p11522.pcp
p11525.pcp
p11528.pcp
p11531.pcp
p11531.pcp
p11534.pcp
p11534.pcp
p11538.pcp
p11538.pcp
p11541.pcp
p11541.pcp
p11544.pcp
p11544.pcp
p11547.pcp
p11547.pcp
p11550.pcp
p11550.pcp
p11553.pcp
p11553.pcp
p11556.pcp
p11556.pcp
p11559.pcp
p11559.pcp
p11562.pcp
p11562.pcp
p11566.pcp
p11566.pcp
p11569.pcp
p11569.pcp
p11572.pcp
p11572.pcp
p11575.pcp
p11575.pcp
p11578.pcp
p11578.pcp
p11581.pcp
p11581.pcp
p11584.pcp
p11584.pcp
p11588.pcp
p11588.pcp
p11591.pcp
p11591.pcp
p11594.pcp
p11594.pcp
p11597.pcp
p11597.pcp
p11600.pcp
p11600.pcp
p11603.pcp
p11603.pcp
p11606.pcp
p11606.pcp
p11609.pcp
p11609.pcp
p11612.pcp
p11612.pcp
p11616.pcp
p11616.pcp
p11619.pcp
p11619.pcp
p11622.pcp
p11622.pcp
p11625.pcp
p11625.pcp
p11628.pcp
p11628.pcp
p11631.pcp
p11631.pcp
p11634.pcp
p11634.pcp
p11638.pcp
p11638.pcp
p11641.pcp
p11641.pcp
p11644.pcp
p11644.pcp
p11647.pcp
p11647.pcp
p11650.pcp
p11650.pcp
p11653.pcp
p11653.pcp
p11656.pcp
p11656.pcp
p11659.pcp
p11659.pcp
p11662.pcp
p11662.pcp
p11666.pcp
p11666.pcp
p11669.pcp
p11669.pcp
p11672.pcp
p11672.pcp
p11675.pcp
p11675.pcp
p11678.pcp
p11678.pcp
p11681.pcp
p11681.pcp
p11684.pcp
p11684.pcp
p11688.pcp
p11688.pcp
p11691.pcp
p11691.pcp
p11694.pcp
p11694.pcp
p11697.pcp
p11697.pcp
p11700.pcp
p11700.pcp
p11703.pcp
p11703.pcp
p11706.pcp
p11706.pcp
p11709.pcp
p11709.pcp
p11712.pcp
p11712.pcp
p11716.pcp
p11716.pcp
p11719.pcp
p11719.pcp
p11722.pcp
p11722.pcp
p11725.pcp
p11725.pcp
p11728.pcp
p11728.pcp
p11731.pcp
p11731.pcp
p11734.pcp
p11734.pcp
p11738.pcp
p11738.pcp
p11741.pcp
p11741.pcp
p11744.pcp
p11744.pcp
p11747.pcp
p11747.pcp
p11750.pcp
p11750.pcp
p117519.pcp
p117522.pcp
p117525.pcp
p117528.pcp
p11753.pcp
p11753.pcp
p117531.pcp
p117534.pcp
p117538.pcp
p117541.pcp
p117544.pcp
p117547.pcp
p117550.pcp
p117553.pcp
p117556.pcp
p117559.pcp
p11756.pcp
p11756.pcp
p117562.pcp
p117566.pcp
p117569.pcp
p117572.pcp
p117575.pcp
p117578.pcp
p117581.pcp
p117584.pcp
p117588.pcp
p11759.pcp
p11759.pcp
p117591.pcp
p117594.pcp
p117597.pcp
p117600.pcp
p117603.pcp
p117606.pcp
p117609.pcp
p117612.pcp
p117616.pcp
p117619.pcp
p11762.pcp
p11762.pcp
p117622.pcp
p117625.pcp
p117628.pcp
p117631.pcp
p117634.pcp
p117638.pcp
p117641.pcp
p117644.pcp
p117647.pcp
p117650.pcp
p117653.pcp
p117656.pcp
p117659.pcp
p11766.pcp
p11766.pcp
p117662.pcp
p117666.pcp
p117669.pcp
p117672.pcp
p117675.pcp
p117678.pcp
p117681.pcp
p117684.pcp
p117688.pcp
p11769.pcp
p11769.pcp
p117691.pcp
p117694.pcp
p117697.pcp
p117700.pcp
p117703.pcp
p117706.pcp
p117709.pcp
p117712.pcp
p117716.pcp
p117719.pcp
p11772.pcp
p11772.pcp
p117722.pcp
p117725.pcp
p117728.pcp
p117731.pcp
p117734.pcp
p117738.pcp
p117741.pcp
p117744.pcp
p117747.pcp
p11775.pcp
p117750.pcp
p117753.pcp
p117756.pcp
p117759.pcp
p11778.pcp
p11781.pcp
p11784.pcp
p11788.pcp
p120519.pcp
p120522.pcp
p120525.pcp
p120528.pcp
p120531.pcp
p120534.pcp
p120538.pcp
p120541.pcp
p120544.pcp
p120547.pcp
p120550.pcp
p120553.pcp
p120556.pcp
p120559.pcp
p120562.pcp
p120566.pcp
p120569.pcp
p120572.pcp
p120575.pcp
p120578.pcp
p120581.pcp
p120584.pcp
p120588.pcp
p120591.pcp
p120594.pcp
p120597.pcp
p120600.pcp
p120603.pcp
p120606.pcp
p120609.pcp
p120612.pcp
p120616.pcp
p120619.pcp
p120622.pcp
p120625.pcp
p120628.pcp
p120631.pcp
p120634.pcp
p120638.pcp
p120641.pcp
p120644.pcp
p120647.pcp
p120650.pcp
p120653.pcp
p120656.pcp
p120659.pcp
p120662.pcp
p120666.pcp
p120669.pcp
p120672.pcp
p120675.pcp
p120678.pcp
p120681.pcp
p120684.pcp
p120688.pcp
p120691.pcp
p120694.pcp
p120697.pcp
p120700.pcp
p120703.pcp
p120706.pcp
p120709.pcp
p120712.pcp
p120716.pcp
p120719.pcp
p120722.pcp
p120725.pcp
p120728.pcp
p120731.pcp
p120734.pcp
p120738.pcp
p120741.pcp
p120744.pcp
p120747.pcp
p120750.pcp
p120753.pcp
p120756.pcp
p123519.pcp
p123522.pcp
p123525.pcp
p123528.pcp
p123531.pcp
p123534.pcp
p123538.pcp
p123541.pcp
p123544.pcp
p123547.pcp
p123550.pcp
p123553.pcp
p123556.pcp
p123559.pcp
p123562.pcp
p123566.pcp
p123569.pcp
p123572.pcp
p123575.pcp
p123578.pcp
p123581.pcp
p123584.pcp
p123588.pcp
p123591.pcp
p123594.pcp
p123597.pcp
p123600.pcp
p123603.pcp
p123606.pcp
p123609.pcp
p123612.pcp
p123616.pcp
p123619.pcp
p123622.pcp
p123625.pcp
p123628.pcp
p123631.pcp
p123634.pcp
p123638.pcp
p123641.pcp
p123644.pcp
p123647.pcp
p123650.pcp
p123653.pcp
p123656.pcp
p123659.pcp
p123662.pcp
p123666.pcp
p123669.pcp
p123672.pcp
p123675.pcp
p123678.pcp
p123681.pcp
p123684.pcp
p123688.pcp
p123691.pcp
p123694.pcp
p123697.pcp
p123700.pcp
p123703.pcp
p123706.pcp
p123709.pcp
p123712.pcp
p123716.pcp
p123719.pcp
p123722.pcp
p123725.pcp
p123728.pcp
p123731.pcp
p123734.pcp
p123738.pcp
p123741.pcp
p123744.pcp
p123747.pcp
p123750.pcp
p123753.pcp
p126519.pcp
p126522.pcp
p126525.pcp
p126528.pcp
p126531.pcp
p126534.pcp
p126538.pcp
p126541.pcp
p126544.pcp
p126547.pcp
p126550.pcp
p126553.pcp
p126556.pcp
p126559.pcp
p126562.pcp
p126566.pcp
p126569.pcp
p126572.pcp
p126575.pcp
p126578.pcp
p126581.pcp
p126584.pcp
p126588.pcp
p126591.pcp
p126594.pcp
p126597.pcp
p126600.pcp
p126603.pcp
p126606.pcp
p126609.pcp
p126612.pcp
p126616.pcp
p126619.pcp
p126622.pcp
p126625.pcp
p126628.pcp
p126631.pcp
p126634.pcp
p126638.pcp
p126641.pcp
p126644.pcp
p126647.pcp
p126650.pcp
p126653.pcp
p126656.pcp
p126659.pcp
p126662.pcp
p126666.pcp
p126669.pcp
p126672.pcp
p126675.pcp
p126678.pcp
p126681.pcp
p126684.pcp
p126688.pcp
p126691.pcp
p126694.pcp
p126697.pcp
p126700.pcp
p126703.pcp
p126706.pcp
p126709.pcp
p126712.pcp
p126716.pcp
p126719.pcp
p126722.pcp
p126725.pcp
p126728.pcp
p126731.pcp
p126734.pcp
p126738.pcp
p126741.pcp
p126744.pcp
p126747.pcp
p126750.pcp
p126753.pcp
p130519.pcp
p130522.pcp
p130525.pcp
p130528.pcp
p130531.pcp
p130534.pcp
p130538.pcp
p130541.pcp
p130544.pcp
p130547.pcp
p130550.pcp
p130553.pcp
p130556.pcp
p130559.pcp
p130562.pcp
p130566.pcp
p130569.pcp
p130572.pcp
p130575.pcp
p130578.pcp
p130581.pcp
p130584.pcp
p130588.pcp
p130591.pcp
p130594.pcp
p130597.pcp
p130600.pcp
p130603.pcp
p130606.pcp
p130609.pcp
p130612.pcp
p130616.pcp
p130619.pcp
p130622.pcp
p130625.pcp
p130628.pcp
p130631.pcp
p130634.pcp
p130638.pcp
p130641.pcp
p130644.pcp
p130647.pcp
p130650.pcp
p130653.pcp
p130656.pcp
p130659.pcp
p130662.pcp
p130666.pcp
p130669.pcp
p130672.pcp
p130675.pcp
p130678.pcp
p130681.pcp
p130684.pcp
p130688.pcp
p130691.pcp
p130694.pcp
p130697.pcp
p130700.pcp
p130703.pcp
p130706.pcp
p130709.pcp
p130712.pcp
p130716.pcp
p130719.pcp
p130722.pcp
p130725.pcp
p130728.pcp
p130731.pcp
p130734.pcp
p130738.pcp
p130741.pcp
p130744.pcp
p130747.pcp
p130750.pcp
p133519.pcp
p133522.pcp
p133525.pcp
p133528.pcp
p133531.pcp
p133534.pcp
p133538.pcp
p133541.pcp
p133544.pcp
p133547.pcp
p133550.pcp
p133553.pcp
p133556.pcp
p133559.pcp
p133562.pcp
p133566.pcp
p133569.pcp
p133572.pcp
p133575.pcp
p133578.pcp
p133581.pcp
p133584.pcp
p133588.pcp
p133591.pcp
p133594.pcp
p133597.pcp
p133600.pcp
p133603.pcp
p133606.pcp
p133609.pcp
p133612.pcp
p133616.pcp
p133619.pcp
p133622.pcp
p133625.pcp
p133628.pcp
p133631.pcp
p133634.pcp
p133638.pcp
p133641.pcp
p133644.pcp
p133647.pcp
p133650.pcp
p133653.pcp
p133656.pcp
p133659.pcp
p133662.pcp
p133666.pcp
p133669.pcp
p133672.pcp
p133675.pcp
p133678.pcp
p133681.pcp
p133684.pcp
p133688.pcp
p133691.pcp
p133694.pcp
p133697.pcp
p133700.pcp
p133703.pcp
p133706.pcp
p133709.pcp
p133712.pcp
p133716.pcp
p133719.pcp
p133722.pcp
p133725.pcp
p133728.pcp
p133731.pcp
p133734.pcp
p133738.pcp
p133741.pcp
p133744.pcp
p133747.pcp
p133750.pcp
p136519.pcp
p136522.pcp
p136525.pcp
p136528.pcp
p136531.pcp
p136534.pcp
p136538.pcp
p136541.pcp
p136544.pcp
p136547.pcp
p136550.pcp
p136553.pcp
p136556.pcp
p136559.pcp
p136562.pcp
p136566.pcp
p136569.pcp
p136572.pcp
p136575.pcp
p136578.pcp
p136581.pcp
p136584.pcp
p136588.pcp
p136591.pcp
p136594.pcp
p136597.pcp
p136600.pcp
p136603.pcp
p136606.pcp
p136609.pcp
p136612.pcp
p136616.pcp
p136619.pcp
p136622.pcp
p136625.pcp
p136628.pcp
p136631.pcp
p136634.pcp
p136638.pcp
p136641.pcp
p136644.pcp
p136647.pcp
p136650.pcp
p136653.pcp
p136656.pcp
p136659.pcp
p136662.pcp
p136666.pcp
p136669.pcp
p136672.pcp
p136675.pcp
p136678.pcp
p136681.pcp
p136684.pcp
p136688.pcp
p136691.pcp
p136694.pcp
p136697.pcp
p136700.pcp
p136703.pcp
p136706.pcp
p136709.pcp
p136712.pcp
p136716.pcp
p136719.pcp
p136722.pcp
p136725.pcp
p136728.pcp
p136731.pcp
p136734.pcp
p136738.pcp
p136741.pcp
p136744.pcp
p136747.pcp
p136750.pcp
p139522.pcp
p139525.pcp
p139528.pcp
p139531.pcp
p139534.pcp
p139538.pcp
p139541.pcp
p139544.pcp
p139547.pcp
p139550.pcp
p139553.pcp
p139556.pcp
p139559.pcp
p139562.pcp
p139566.pcp
p139569.pcp
p139572.pcp
p139575.pcp
p139578.pcp
p139581.pcp
p139584.pcp
p139588.pcp
p139591.pcp
p139594.pcp
p139597.pcp
p139600.pcp
p139603.pcp
p139606.pcp
p139609.pcp
p139612.pcp
p139616.pcp
p139619.pcp
p139622.pcp
p139625.pcp
p139628.pcp
p139631.pcp
p139634.pcp
p139638.pcp
p139641.pcp
p139644.pcp
p139647.pcp
p139650.pcp
p139653.pcp
p139656.pcp
p139659.pcp
p139662.pcp
p139666.pcp
p139669.pcp
p139672.pcp
p139675.pcp
p139678.pcp
p139681.pcp
p139684.pcp
p139688.pcp
p139691.pcp
p139694.pcp
p139697.pcp
p139700.pcp
p139703.pcp
p139706.pcp
p139709.pcp
p139712.pcp
p139716.pcp
p139719.pcp
p139722.pcp
p139725.pcp
p139728.pcp
p139731.pcp
p139734.pcp
p139738.pcp
p139741.pcp
p139744.pcp
p139747.pcp
p142528.pcp
p142531.pcp
p142534.pcp
p142538.pcp
p142541.pcp
p142544.pcp
p142547.pcp
p142550.pcp
p142553.pcp
p142556.pcp
p142559.pcp
p142562.pcp
p142566.pcp
p142575.pcp
p142578.pcp
p142581.pcp
p142584.pcp
p142588.pcp
p142591.pcp
p142594.pcp
p142597.pcp
p142600.pcp
p142603.pcp
p142606.pcp
p142609.pcp
p142612.pcp
p142616.pcp
p142619.pcp
p142622.pcp
p142625.pcp
p142628.pcp
p142631.pcp
p142634.pcp
p142638.pcp
p142641.pcp
p142644.pcp
p142647.pcp
p142650.pcp
p142653.pcp
p142656.pcp
p142659.pcp
p142662.pcp
p142666.pcp
p142669.pcp
p142672.pcp
p142675.pcp
p142678.pcp
p142681.pcp
p142684.pcp
p142688.pcp
p142691.pcp
p142694.pcp
p142697.pcp
p142700.pcp
p142709.pcp
p142712.pcp
p142716.pcp
p142719.pcp
p142722.pcp
p142725.pcp
p142728.pcp
p142731.pcp
p142734.pcp
p142738.pcp
p142741.pcp
p142744.pcp
p142747.pcp
p14491.pcp
p14494.pcp
p14497.pcp
p14500.pcp
p14503.pcp
p14506.pcp
p14509.pcp
p14512.pcp
p14516.pcp
p14519.pcp
p14522.pcp
p14525.pcp
p14528.pcp
p14531.pcp
p14531.pcp
p14534.pcp
p14534.pcp
p14538.pcp
p14538.pcp
p14541.pcp
p14541.pcp
p14544.pcp
p14544.pcp
p14547.pcp
p14547.pcp
p14550.pcp
p14550.pcp
p14553.pcp
p14553.pcp
p145531.pcp
p145534.pcp
p145538.pcp
p145541.pcp
p145544.pcp
p145547.pcp
p145550.pcp
p14556.pcp
p14556.pcp
p145588.pcp
p14559.pcp
p14559.pcp
p145591.pcp
p145594.pcp
p145597.pcp
p145600.pcp
p145603.pcp
p145606.pcp
p145609.pcp
p145612.pcp
p145616.pcp
p145619.pcp
p14562.pcp
p14562.pcp
p145622.pcp
p145625.pcp
p145628.pcp
p145631.pcp
p145634.pcp
p145638.pcp
p145641.pcp
p145644.pcp
p145647.pcp
p145650.pcp
p145653.pcp
p145656.pcp
p145659.pcp
p14566.pcp
p14566.pcp
p145662.pcp
p145666.pcp
p145669.pcp
p145672.pcp
p145675.pcp
p145678.pcp
p145681.pcp
p145684.pcp
p145688.pcp
p14569.pcp
p14569.pcp
p145691.pcp
p145694.pcp
p145712.pcp
p145716.pcp
p145719.pcp
p14572.pcp
p14572.pcp
p145722.pcp
p145725.pcp
p145728.pcp
p145731.pcp
p145734.pcp
p145738.pcp
p14575.pcp
p14575.pcp
p14578.pcp
p14578.pcp
p14581.pcp
p14581.pcp
p14584.pcp
p14584.pcp
p14588.pcp
p14591.pcp
p14594.pcp
p14594.pcp
p14597.pcp
p14597.pcp
p14600.pcp
p14600.pcp
p14603.pcp
p14603.pcp
p14606.pcp
p14606.pcp
p14609.pcp
p14609.pcp
p14612.pcp
p14612.pcp
p14616.pcp
p14616.pcp
p14619.pcp
p14619.pcp
p14622.pcp
p14622.pcp
p14625.pcp
p14625.pcp
p14628.pcp
p14628.pcp
p14631.pcp
p14631.pcp
p14634.pcp
p14634.pcp
p14638.pcp
p14638.pcp
p14641.pcp
p14641.pcp
p14644.pcp
p14644.pcp
p14647.pcp
p14647.pcp
p14650.pcp
p14650.pcp
p14653.pcp
p14653.pcp
p14656.pcp
p14656.pcp
p14659.pcp
p14659.pcp
p14662.pcp
p14662.pcp
p14666.pcp
p14666.pcp
p14669.pcp
p14669.pcp
p14672.pcp
p14672.pcp
p14675.pcp
p14675.pcp
p14678.pcp
p14678.pcp
p14681.pcp
p14681.pcp
p14684.pcp
p14684.pcp
p14688.pcp
p14688.pcp
p14691.pcp
p14691.pcp
p14694.pcp
p14694.pcp
p14697.pcp
p14697.pcp
p14700.pcp
p14700.pcp
p14703.pcp
p14703.pcp
p14706.pcp
p14706.pcp
p14709.pcp
p14709.pcp
p14712.pcp
p14712.pcp
p14716.pcp
p14716.pcp
p14719.pcp
p14719.pcp
p14722.pcp
p14722.pcp
p14725.pcp
p14725.pcp
p14728.pcp
p14728.pcp
p14731.pcp
p14731.pcp
p14734.pcp
p14734.pcp
p14738.pcp
p14738.pcp
p14741.pcp
p14741.pcp
p14744.pcp
p14744.pcp
p14747.pcp
p14747.pcp
p14750.pcp
p14750.pcp
p14753.pcp
p14753.pcp
p14756.pcp
p14756.pcp
p14759.pcp
p14759.pcp
p14762.pcp
p14762.pcp
p14766.pcp
p14766.pcp
p14769.pcp
p14769.pcp
p14772.pcp
p14775.pcp
p14778.pcp
p14781.pcp
p14784.pcp
p14788.pcp
p148538.pcp
p148541.pcp
p148591.pcp
p148594.pcp
p148597.pcp
p148600.pcp
p148603.pcp
p148606.pcp
p148609.pcp
p148612.pcp
p148616.pcp
p148619.pcp
p148622.pcp
p148625.pcp
p148628.pcp
p148631.pcp
p148634.pcp
p148638.pcp
p148641.pcp
p148644.pcp
p148647.pcp
p148650.pcp
p148653.pcp
p148656.pcp
p148659.pcp
p148662.pcp
p148666.pcp
p148669.pcp
p148672.pcp
p148675.pcp
p148678.pcp
p148681.pcp
p148684.pcp
p148688.pcp
p148691.pcp
p148712.pcp
p148716.pcp
p148719.pcp
p148722.pcp
p151591.pcp
p151594.pcp
p151597.pcp
p151600.pcp
p151603.pcp
p151606.pcp
p151609.pcp
p151612.pcp
p151616.pcp
p151619.pcp
p151622.pcp
p151625.pcp
p151628.pcp
p151631.pcp
p151634.pcp
p151638.pcp
p151641.pcp
p151644.pcp
p151647.pcp
p151650.pcp
p151653.pcp
p151656.pcp
p151659.pcp
p151662.pcp
p151666.pcp
p151669.pcp
p151672.pcp
p151675.pcp
p151678.pcp
p151681.pcp
p151684.pcp
p151688.pcp
p151691.pcp
p151716.pcp
p151719.pcp
p155594.pcp
p155597.pcp
p155600.pcp
p155603.pcp
p155606.pcp
p155609.pcp
p155612.pcp
p155616.pcp
p155619.pcp
p155622.pcp
p155625.pcp
p155628.pcp
p155631.pcp
p155634.pcp
p155638.pcp
p155641.pcp
p155644.pcp
p155647.pcp
p155650.pcp
p155653.pcp
p155656.pcp
p155659.pcp
p155662.pcp
p155666.pcp
p155669.pcp
p155672.pcp
p155675.pcp
p155678.pcp
p155681.pcp
p155684.pcp
p155688.pcp
p155691.pcp
p158594.pcp
p158597.pcp
p158600.pcp
p158603.pcp
p158606.pcp
p158609.pcp
p158612.pcp
p158616.pcp
p158619.pcp
p158622.pcp
p158625.pcp
p158628.pcp
p158631.pcp
p158634.pcp
p158638.pcp
p158641.pcp
p158644.pcp
p158647.pcp
p158650.pcp
p158653.pcp
p158656.pcp
p158659.pcp
p158662.pcp
p158666.pcp
p158669.pcp
p158672.pcp
p158675.pcp
p158678.pcp
p158681.pcp
p158684.pcp
p158688.pcp
p161597.pcp
p161600.pcp
p161603.pcp
p161606.pcp
p161609.pcp
p161612.pcp
p161616.pcp
p161619.pcp
p161622.pcp
p161625.pcp
p161628.pcp
p161631.pcp
p161634.pcp
p161638.pcp
p161641.pcp
p161644.pcp
p161647.pcp
p161650.pcp
p161653.pcp
p161656.pcp
p161659.pcp
p161662.pcp
p161666.pcp
p161669.pcp
p161672.pcp
p161675.pcp
p161678.pcp
p161681.pcp
p164603.pcp
p164606.pcp
p164609.pcp
p164612.pcp
p164616.pcp
p164619.pcp
p164622.pcp
p164625.pcp
p164628.pcp
p164631.pcp
p164634.pcp
p164638.pcp
p164641.pcp
p164644.pcp
p164647.pcp
p164650.pcp
p164653.pcp
p164656.pcp
p164659.pcp
p164662.pcp
p164666.pcp
p164669.pcp
p164672.pcp
p164675.pcp
p164678.pcp
p164681.pcp
p167606.pcp
p167609.pcp
p167612.pcp
p167616.pcp
p167619.pcp
p167622.pcp
p167625.pcp
p167628.pcp
p167631.pcp
p167634.pcp
p167638.pcp
p167641.pcp
p167644.pcp
p167647.pcp
p167650.pcp
p167653.pcp
p167656.pcp
p167659.pcp
p167662.pcp
p167666.pcp
p167669.pcp
p167672.pcp
p167675.pcp
p167678.pcp
p170603.pcp
p170606.pcp
p170609.pcp
p170612.pcp
p170616.pcp
p170619.pcp
p170622.pcp
p170625.pcp
p170628.pcp
p170631.pcp
p170634.pcp
p170638.pcp
p170641.pcp
p170644.pcp
p170647.pcp
p170650.pcp
p170653.pcp
p170656.pcp
p170659.pcp
p170662.pcp
p170666.pcp
p170669.pcp
p170672.pcp
p170675.pcp
p170678.pcp
p173600.pcp
p173603.pcp
p173606.pcp
p173609.pcp
p173612.pcp
p173616.pcp
p173619.pcp
p173622.pcp
p173625.pcp
p173628.pcp
p173631.pcp
p173634.pcp
p173638.pcp
p173641.pcp
p173644.pcp
p173647.pcp
p173650.pcp
p173653.pcp
p173656.pcp
p173659.pcp
p173662.pcp
p173666.pcp
p173669.pcp
p17497.pcp
p17500.pcp
p17503.pcp
p17506.pcp
p17509.pcp
p17512.pcp
p17516.pcp
p17519.pcp
p17522.pcp
p17525.pcp
p17528.pcp
p17531.pcp
p17531.pcp
p17534.pcp
p17534.pcp
p17538.pcp
p17538.pcp
p17541.pcp
p17541.pcp
p17544.pcp
p17544.pcp
p17547.pcp
p17547.pcp
p17550.pcp
p17550.pcp
p17553.pcp
p17553.pcp
p17556.pcp
p17556.pcp
p17559.pcp
p17559.pcp
p17562.pcp
p17562.pcp
p17566.pcp
p17566.pcp
p17569.pcp
p17569.pcp
p17572.pcp
p17572.pcp
p17575.pcp
p17575.pcp
p17578.pcp
p17581.pcp
p17584.pcp
p17588.pcp
p17591.pcp
p17594.pcp
p17597.pcp
p17597.pcp
p17600.pcp
p17600.pcp
p17603.pcp
p17603.pcp
p17606.pcp
p17606.pcp
p17609.pcp
p17609.pcp
p17612.pcp
p17612.pcp
p17616.pcp
p17616.pcp
p17619.pcp
p17619.pcp
p17622.pcp
p17622.pcp
p17625.pcp
p17625.pcp
p17628.pcp
p17628.pcp
p17631.pcp
p17631.pcp
p17634.pcp
p17634.pcp
p17638.pcp
p17638.pcp
p17641.pcp
p17641.pcp
p17644.pcp
p17644.pcp
p17647.pcp
p17647.pcp
p17650.pcp
p17650.pcp
p17653.pcp
p17656.pcp
p17656.pcp
p17659.pcp
p17659.pcp
p176603.pcp
p176606.pcp
p176609.pcp
p176612.pcp
p176616.pcp
p176619.pcp
p17662.pcp
p17662.pcp
p176622.pcp
p176625.pcp
p176628.pcp
p176631.pcp
p176634.pcp
p176638.pcp
p176641.pcp
p176644.pcp
p176647.pcp
p176650.pcp
p176653.pcp
p176656.pcp
p176659.pcp
p17666.pcp
p17666.pcp
p176662.pcp
p176666.pcp
p176669.pcp
p17669.pcp
p17669.pcp
p17672.pcp
p17672.pcp
p17675.pcp
p17675.pcp
p17678.pcp
p17678.pcp
p17681.pcp
p17681.pcp
p17684.pcp
p17684.pcp
p17688.pcp
p17688.pcp
p17691.pcp
p17691.pcp
p17694.pcp
p17694.pcp
p17697.pcp
p17697.pcp
p17700.pcp
p17700.pcp
p17703.pcp
p17703.pcp
p17706.pcp
p17706.pcp
p17709.pcp
p17712.pcp
p17716.pcp
p17716.pcp
p17719.pcp
p17722.pcp
p17722.pcp
p17725.pcp
p17725.pcp
p17728.pcp
p17728.pcp
p17731.pcp
p17731.pcp
p17734.pcp
p17734.pcp
p17738.pcp
p17738.pcp
p17741.pcp
p17741.pcp
p17744.pcp
p17744.pcp
p17747.pcp
p17747.pcp
p17750.pcp
p17750.pcp
p17753.pcp
p17753.pcp
p17756.pcp
p17756.pcp
p17759.pcp
p17762.pcp
p17766.pcp
p17766.pcp
p17769.pcp
p17772.pcp
p17775.pcp
p17778.pcp
p17781.pcp
p17784.pcp
p17788.pcp
p180603.pcp
p180606.pcp
p180609.pcp
p180612.pcp
p180616.pcp
p180619.pcp
p180622.pcp
p180625.pcp
p180628.pcp
p180631.pcp
p180634.pcp
p180638.pcp
p180641.pcp
p180644.pcp
p180647.pcp
p180650.pcp
p180653.pcp
p180656.pcp
p180659.pcp
p180662.pcp
p180666.pcp
p183606.pcp
p183609.pcp
p183612.pcp
p183616.pcp
p183619.pcp
p183622.pcp
p183625.pcp
p183628.pcp
p183631.pcp
p183634.pcp
p183638.pcp
p183641.pcp
p183644.pcp
p183647.pcp
p183650.pcp
p183653.pcp
p183656.pcp
p183659.pcp
p183662.pcp
p183666.pcp
p186606.pcp
p186609.pcp
p186612.pcp
p186616.pcp
p186619.pcp
p186622.pcp
p186625.pcp
p186628.pcp
p186631.pcp
p186634.pcp
p186638.pcp
p186641.pcp
p186644.pcp
p186647.pcp
p186650.pcp
p186653.pcp
p186656.pcp
p186659.pcp
p186662.pcp
p186666.pcp
p189609.pcp
p189612.pcp
p189616.pcp
p189619.pcp
p189622.pcp
p189625.pcp
p189628.pcp
p189631.pcp
p189634.pcp
p189638.pcp
p189641.pcp
p189644.pcp
p189647.pcp
p189650.pcp
p189653.pcp
p189659.pcp
p189662.pcp
p192622.pcp
p192625.pcp
p192628.pcp
p192631.pcp
p192634.pcp
p192638.pcp
p192641.pcp
p192644.pcp
p192647.pcp
p195625.pcp
p195628.pcp
p195631.pcp
p195634.pcp
p195638.pcp
p195641.pcp
p195644.pcp
p198628.pcp
p198631.pcp
p198634.pcp
p198638.pcp
p198641.pcp
p198644.pcp
p201634.pcp
p201638.pcp
p201641.pcp
p201644.pcp
p20497.pcp
p20500.pcp
p20503.pcp
p20506.pcp
p20509.pcp
p20512.pcp
p20516.pcp
p20519.pcp
p20522.pcp
p20525.pcp
p20528.pcp
p20531.pcp
p20534.pcp
p20534.pcp
p20538.pcp
p20538.pcp
p20541.pcp
p20541.pcp
p20544.pcp
p20544.pcp
p20547.pcp
p20547.pcp
p20550.pcp
p20550.pcp
p20553.pcp
p20553.pcp
p20556.pcp
p20556.pcp
p20559.pcp
p20562.pcp
p205638.pcp
p205641.pcp
p20566.pcp
p20569.pcp
p20572.pcp
p20575.pcp
p20578.pcp
p20581.pcp
p20584.pcp
p20588.pcp
p20591.pcp
p20594.pcp
p20597.pcp
p20597.pcp
p20600.pcp
p20600.pcp
p20603.pcp
p20603.pcp
p20606.pcp
p20606.pcp
p20609.pcp
p20609.pcp
p20612.pcp
p20612.pcp
p20616.pcp
p20616.pcp
p20619.pcp
p20619.pcp
p20622.pcp
p20622.pcp
p20625.pcp
p20625.pcp
p20628.pcp
p20628.pcp
p20631.pcp
p20631.pcp
p20634.pcp
p20634.pcp
p20638.pcp
p20641.pcp
p20644.pcp
p20647.pcp
p20650.pcp
p20653.pcp
p20656.pcp
p20656.pcp
p20659.pcp
p20659.pcp
p20662.pcp
p20662.pcp
p20666.pcp
p20666.pcp
p20669.pcp
p20669.pcp
p20672.pcp
p20672.pcp
p20675.pcp
p20675.pcp
p20678.pcp
p20678.pcp
p20681.pcp
p20681.pcp
p20684.pcp
p20684.pcp
p20688.pcp
p20688.pcp
p20691.pcp
p20691.pcp
p20694.pcp
p20694.pcp
p20697.pcp
p20697.pcp
p20700.pcp
p20703.pcp
p20706.pcp
p20709.pcp
p20712.pcp
p20716.pcp
p20719.pcp
p20722.pcp
p20725.pcp
p20725.pcp
p20728.pcp
p20728.pcp
p20731.pcp
p20734.pcp
p20734.pcp
p20738.pcp
p20741.pcp
p20744.pcp
p20744.pcp
p20747.pcp
p20747.pcp
p20750.pcp
p20750.pcp
p20753.pcp
p20753.pcp
p20756.pcp
p20759.pcp
p20762.pcp
p20766.pcp
p20769.pcp
p20772.pcp
p20775.pcp
p20778.pcp
p20781.pcp
p20784.pcp
p20788.pcp
p23497.pcp
p23500.pcp
p23503.pcp
p23506.pcp
p23509.pcp
p23512.pcp
p23516.pcp
p23519.pcp
p23522.pcp
p23525.pcp
p23528.pcp
p23531.pcp
p23534.pcp
p23538.pcp
p23538.pcp
p23541.pcp
p23544.pcp
p23547.pcp
p23547.pcp
p23550.pcp
p23550.pcp
p23553.pcp
p23553.pcp
p23556.pcp
p23556.pcp
p23559.pcp
p23559.pcp
p23562.pcp
p23566.pcp
p23569.pcp
p23572.pcp
p23575.pcp
p23578.pcp
p23581.pcp
p23584.pcp
p23588.pcp
p23591.pcp
p23594.pcp
p23597.pcp
p23597.pcp
p23600.pcp
p23600.pcp
p23603.pcp
p23603.pcp
p23606.pcp
p23606.pcp
p23609.pcp
p23609.pcp
p23612.pcp
p23612.pcp
p23616.pcp
p23616.pcp
p23619.pcp
p23619.pcp
p23622.pcp
p23622.pcp
p23625.pcp
p23625.pcp
p23628.pcp
p23628.pcp
p23631.pcp
p23631.pcp
p23634.pcp
p23638.pcp
p23641.pcp
p23644.pcp
p23647.pcp
p23650.pcp
p23653.pcp
p23656.pcp
p23656.pcp
p23659.pcp
p23659.pcp
p23662.pcp
p23662.pcp
p23666.pcp
p23666.pcp
p23669.pcp
p23669.pcp
p23672.pcp
p23672.pcp
p23675.pcp
p23675.pcp
p23678.pcp
p23678.pcp
p23681.pcp
p23681.pcp
p23684.pcp
p23684.pcp
p23688.pcp
p23688.pcp
p23691.pcp
p23691.pcp
p23694.pcp
p23694.pcp
p23697.pcp
p23700.pcp
p23703.pcp
p23706.pcp
p23709.pcp
p23712.pcp
p23716.pcp
p23719.pcp
p23722.pcp
p23725.pcp
p23728.pcp
p23731.pcp
p23734.pcp
p23738.pcp
p23741.pcp
p23744.pcp
p23747.pcp
p23750.pcp
p23750.pcp
p23753.pcp
p23753.pcp
p23756.pcp
p23759.pcp
p23762.pcp
p23766.pcp
p23769.pcp
p23772.pcp
p23775.pcp
p23778.pcp
p23781.pcp
p23784.pcp
p23788.pcp
p2503.pcp
p2509.pcp
p2512.pcp
p2516.pcp
p2516.pcp
p2519.pcp
p2519.pcp
p2522.pcp
p2522.pcp
p2525.pcp
p2525.pcp
p2528.pcp
p2528.pcp
p2531.pcp
p2531.pcp
p2534.pcp
p2534.pcp
p2538.pcp
p2538.pcp
p2541.pcp
p2541.pcp
p2544.pcp
p2544.pcp
p2547.pcp
p2547.pcp
p2550.pcp
p2550.pcp
p2553.pcp
p2553.pcp
p2556.pcp
p2556.pcp
p2559.pcp
p2559.pcp
p2562.pcp
p2562.pcp
p2566.pcp
p2566.pcp
p2569.pcp
p2569.pcp
p2572.pcp
p2572.pcp
p2575.pcp
p2575.pcp
p2578.pcp
p2578.pcp
p2581.pcp
p2581.pcp
p2584.pcp
p2584.pcp
p2588.pcp
p2588.pcp
p2591.pcp
p2591.pcp
p2594.pcp
p2594.pcp
p2597.pcp
p2597.pcp
p2600.pcp
p2600.pcp
p2603.pcp
p2603.pcp
p2606.pcp
p2606.pcp
p2609.pcp
p2609.pcp
p2612.pcp
p2612.pcp
p2616.pcp
p2616.pcp
p2619.pcp
p2619.pcp
p2622.pcp
p2622.pcp
p2625.pcp
p2625.pcp
p2628.pcp
p2628.pcp
p2631.pcp
p2631.pcp
p2634.pcp
p2634.pcp
p2638.pcp
p2638.pcp
p2641.pcp
p2641.pcp
p2644.pcp
p2644.pcp
p2647.pcp
p2647.pcp
p2650.pcp
p2650.pcp
p2653.pcp
p2653.pcp
p2656.pcp
p2656.pcp
p2659.pcp
p2659.pcp
p2662.pcp
p2662.pcp
p2666.pcp
p2666.pcp
p2669.pcp
p2669.pcp
p2672.pcp
p2672.pcp
p2675.pcp
p2675.pcp
p2678.pcp
p2678.pcp
p2681.pcp
p2681.pcp
p2684.pcp
p2684.pcp
p2688.pcp
p2688.pcp
p2691.pcp
p2691.pcp
p2694.pcp
p2694.pcp
p2697.pcp
p2697.pcp
p2700.pcp
p2700.pcp
p2703.pcp
p2703.pcp
p2706.pcp
p2706.pcp
p2709.pcp
p2709.pcp
p2712.pcp
p2712.pcp
p2716.pcp
p2716.pcp
p2719.pcp
p2719.pcp
p2722.pcp
p2722.pcp
p2725.pcp
p2725.pcp
p2728.pcp
p2728.pcp
p2731.pcp
p2731.pcp
p2734.pcp
p2734.pcp
p2738.pcp
p2738.pcp
p2741.pcp
p2741.pcp
p2744.pcp
p2744.pcp
p2747.pcp
p2747.pcp
p2750.pcp
p2750.pcp
p27500.pcp
p27503.pcp
p27506.pcp
p27509.pcp
p27512.pcp
p27516.pcp
p27519.pcp
p27522.pcp
p27525.pcp
p27528.pcp
p2753.pcp
p2753.pcp
p27531.pcp
p27534.pcp
p27538.pcp
p27541.pcp
p27544.pcp
p27547.pcp
p27550.pcp
p27553.pcp
p27556.pcp
p27559.pcp
p2756.pcp
p2756.pcp
p27562.pcp
p27566.pcp
p27569.pcp
p27572.pcp
p27575.pcp
p27578.pcp
p27581.pcp
p27584.pcp
p27588.pcp
p2759.pcp
p2759.pcp
p27591.pcp
p27594.pcp
p27597.pcp
p27597.pcp
p27600.pcp
p27600.pcp
p27603.pcp
p27603.pcp
p27606.pcp
p27606.pcp
p27609.pcp
p27609.pcp
p27612.pcp
p27612.pcp
p27616.pcp
p27616.pcp
p27619.pcp
p27619.pcp
p2762.pcp
p2762.pcp
p27622.pcp
p27622.pcp
p27625.pcp
p27625.pcp
p27628.pcp
p27628.pcp
p27631.pcp
p27631.pcp
p27634.pcp
p27634.pcp
p27638.pcp
p27638.pcp
p27641.pcp
p27644.pcp
p27647.pcp
p27650.pcp
p27653.pcp
p27656.pcp
p27656.pcp
p27659.pcp
p27659.pcp
p2766.pcp
p2766.pcp
p27662.pcp
p27662.pcp
p27666.pcp
p27666.pcp
p27669.pcp
p27669.pcp
p27672.pcp
p27672.pcp
p27675.pcp
p27675.pcp
p27678.pcp
p27678.pcp
p27681.pcp
p27681.pcp
p27684.pcp
p27684.pcp
p27688.pcp
p2769.pcp
p2769.pcp
p27691.pcp
p27694.pcp
p27697.pcp
p27700.pcp
p27703.pcp
p27706.pcp
p27709.pcp
p27712.pcp
p27716.pcp
p27719.pcp
p2772.pcp
p2772.pcp
p27722.pcp
p27725.pcp
p27728.pcp
p27731.pcp
p27734.pcp
p27738.pcp
p27741.pcp
p27744.pcp
p27747.pcp
p27747.pcp
p2775.pcp
p2775.pcp
p27750.pcp
p27750.pcp
p27753.pcp
p27756.pcp
p27759.pcp
p27762.pcp
p27766.pcp
p27769.pcp
p27772.pcp
p27775.pcp
p27778.pcp
p2778.pcp
p2778.pcp
p27781.pcp
p27784.pcp
p27788.pcp
p27791.pcp
p30500.pcp
p30503.pcp
p30506.pcp
p30509.pcp
p30512.pcp
p30516.pcp
p30519.pcp
p30522.pcp
p30525.pcp
p30528.pcp
p30531.pcp
p30534.pcp
p30538.pcp
p30541.pcp
p30544.pcp
p30547.pcp
p30550.pcp
p30553.pcp
p30556.pcp
p30559.pcp
p30562.pcp
p30566.pcp
p30569.pcp
p30572.pcp
p30575.pcp
p30578.pcp