plant.ini: written by SWAT+ editor v1.2.3 on 2020-11-06 14:57
pcom_name          plt_cnt  rot_yr_ini          plt_name     lc_status      lai_init       bm_init      phu_init      plnt_pop      yrs_init      rsd_init  
wetf_comm                1         1  
                                        wetf             y       2.00000   50000.00000       0.00000       0.00000       1.00000   10000.00000  
frse_comm                1         1  
                                        frse             y       2.00000   50000.00000       0.00000       0.00000       1.00000   10000.00000  
frst_comm                1         1  
                                        frst             y       2.00000   50000.00000       0.00000       0.00000       1.00000   10000.00000  
watr_comm                1         1  
                                        watr             n       0.00000       0.00000       0.00000       0.00000       0.00000   10000.00000  
rnge_comm                1         1  
                                        rnge             y       2.00000   20000.00000       0.00000       0.00000       1.00000   10000.00000  
