recall.con: written by SWAT+ editor v1.2.3 on 2020-11-06 14:57
      id  name                gis_id          area           lat           lon          elev       rec               wst       cst      ovfl      rule   out_tot       obj_typ    obj_id       hyd_typ          frac  
       1  pt06                     6       0.00001      -5.03386     -73.84056      91.00000         1      sta515s7375w         0         0         0         1           sdc         1           tot       1.00000  
       2  pt08                     8       0.00001      -5.78086     -74.29653     104.00000         2      sta578s7438w         0         0         0         1           sdc         2           tot       1.00000  
       3  pt10                    10       0.00001      -5.74769     -73.90421     106.00000         3      sta578s7375w         0         0         0         1           sdc         3           tot       1.00000  
       4  pt12                    12       0.00001      -7.22515     -75.26092     124.00000         4      sta734s7531w         0         0         0         1           sdc         4           tot       1.00000  
       5  pt14                    14       0.00001      -6.78075     -74.39522     150.00000         5      sta671s7438w         0         0         0         1           sdc         5           tot       1.00000  
       6  pt16                    16       0.00001      -7.41820     -74.95351     126.00000         6      sta734s7500w         0         0         0         1           sdc         6           tot       1.00000  
       7  pt17                    17       0.00001      -7.65071     -75.04206     127.00000         7      sta765s7500w         0         0         0         1           sdc         7           tot       1.00000  
       8  pt19                    19       0.00001      -8.05280     -74.67112     136.00000         8      sta796s7469w         0         0         0         1           sdc         8           tot       1.00000  
       9  pt21                    21       0.00001      -8.40830     -74.46533     139.00000         9      sta827s7438w         0         0         0         1           sdc         9           tot       1.00000  
      10  pt22                    22       0.00001      -8.77567     -74.49988     145.00000        10      sta890s7438w         0         0         0         1           sdc        10           tot       1.00000  
      11  pt24                    24       0.00001      -8.55263     -75.36922     221.00000        11      sta859s7531w         0         0         0         1           sdc        11           tot       1.00000  
      12  pt26                    26       0.00001      -7.79478     -75.25426     147.00000        12      sta765s7531w         0         0         0         1           sdc        12           tot       1.00000  
      13  pt28                    28       0.00001      -7.31780     -75.61500     185.00000        13      sta734s7562w         0         0         0         1           sdc        13           tot       1.00000  
      14  pt30                    30       0.00001      -8.77569     -74.51624     145.00000        14      sta890s7438w         0         0         0         1           sdc        14           tot       1.00000  
      15  pt32                    32       0.00001     -10.62220     -73.87670     191.00000        15     sta1077s7375w         0         0         0         1           sdc        15           tot       1.00000  
      16  pt34                    34       0.00001      -9.15029     -74.88779     167.00000        16      sta921s7500w         0         0         0         1           sdc        16           tot       1.00000  
      17  pt35                    35       0.00001      -9.34792     -74.98137     195.00000        17      sta921s7500w         0         0         0         1           sdc        17           tot       1.00000  
      18  pt37                    37       0.00001     -10.16623     -74.89214     234.00000        18     sta1015s7500w         0         0         0         1           sdc        18           tot       1.00000  
      19  pt39                    39       0.00001      -9.83802     -75.53936     575.00000        19      sta984s7562w         0         0         0         1           sdc        19           tot       1.00000  
      20  pt41                    41       0.00001      -9.04094     -73.66686     184.00000        20      sta890s7375w         0         0         0         1           sdc        20           tot       1.00000  
      21  pt42                    42       0.00001     -10.70543     -73.75886     202.00000        21     sta1077s7375w         0         0         0         1           sdc        21           tot       1.00000  
      22  pt44                    44       0.00001     -11.16022     -74.23253     305.00000        22     sta1108s7438w         0         0         0         1           sdc        22           tot       1.00000  
      23  pt46                    46       0.00001     -12.26808     -73.97891     469.00000        23     sta1233s7406w         0         0         0         1           sdc        23           tot       1.00000  
      24  pt48                    48       0.00001     -10.68318     -73.46048     217.00000        24     sta1077s7344w         0         0         0         1           sdc        24           tot       1.00000  
      25  pt50                    50       0.00001     -12.34766     -72.86996     467.00000        25     sta1233s7281w         0         0         0         1           sdc        25           tot       1.00000  
      26  pt52                    52       0.00001     -11.12148     -75.34854     804.00000        26     sta1108s7531w         0         0         0         1           sdc        26           tot       1.00000  
      27  pt54                    54       0.00001     -10.59148     -73.25421     250.00000        27     sta1046s7312w         0         0         0         1           sdc        27           tot       1.00000  
      28  pt56                    56       0.00001     -12.83625     -74.32253    2144.00000        28     sta1296s7438w         0         0         0         1           sdc        28           tot       1.00000  
      29  pt58                    58       0.00001     -13.41886     -73.21691    1043.00000        29     sta1327s7312w         0         0         0         1           sdc        29           tot       1.00000  
      30  pt60                    60       0.00001     -13.98081     -71.49094    3377.00000        30     sta1389s7156w         0         0         0         1           sdc        30           tot       1.00000  
      31  pt62                    62       0.00001     -12.41415     -72.49598     768.00000        31     sta1233s7250w         0         0         0         1           sdc        31           tot       1.00000  
      32  pt64                    64       0.00001     -11.33345     -76.11207    3887.00000        32     sta1140s7625w         0         0         0         1           sdc        32           tot       1.00000  
      33  pt66                    66       0.00001     -13.44636     -73.16448    1221.00000        33     sta1358s7312w         0         0         0         1           sdc        33           tot       1.00000  
      34  pt68                    68       0.00001     -14.70174     -71.44870    3869.00000        34     sta1452s7156w         0         0         0         1           sdc        34           tot       1.00000  
      35  pt70                    70       0.00001     -13.99465     -73.16973    2297.00000        35     sta1389s7312w         0         0         0         1           sdc        35           tot       1.00000  
      36  pt72                    72       0.00001     -13.63328     -74.27517    2630.00000        36     sta1358s7438w         0         0         0         1           sdc        36           tot       1.00000  
      37  pt74                    74       0.00001     -12.88738     -74.32003    2189.00000        37     sta1296s7438w         0         0         0         1           sdc        37           tot       1.00000  
