rout_unit.ele: written by SWAT+ editor v1.2.3 on 2020-11-06 14:57
      id  name                   obj_typ    obj_id          frac               dlr  
       1  hru001                     hru         1     4.3773E-1                 0  
       2  hru002                     hru         2     5.6227E-1                 0  
       3  hru003                     hru         3     5.7096E-1                 0  
       4  hru004                     hru         4     4.2904E-1                 0  
       5  hru005                     hru         5     3.2798E-1                 0  
       6  hru006                     hru         6     4.4263E-1                 0  
       7  hru007                     hru         7     2.2939E-1                 0  
       8  hru008                     hru         8     3.7665E-1                 0  
       9  hru009                     hru         9     4.1309E-1                 0  
      10  hru010                     hru        10     2.1026E-1                 0  
      11  hru011                     hru        11     3.4203E-1                 0  
      12  hru012                     hru        12     4.9989E-1                 0  
      13  hru013                     hru        13     1.5808E-1                 0  
      14  hru014                     hru        14     1.4080E-1                 0  
      15  hru015                     hru        15     6.5585E-1                 0  
      16  hru016                     hru        16     2.0334E-1                 0  
      17  hru017                     hru        17     5.5781E-1                 0  
      18  hru018                     hru        18     2.5101E-1                 0  
      19  hru019                     hru        19     1.9119E-1                 0  
      20  hru020                     hru        20     4.3538E-1                 0  
      21  hru021                     hru        21     1.0936E-1                 0  
      22  hru022                     hru        22     1.9857E-1                 0  
      23  hru023                     hru        23     2.5670E-1                 0  
      24  hru024                     hru        24     4.5131E-1                 0  
      25  hru025                     hru        25     2.0862E-1                 0  
      26  hru026                     hru        26     3.4007E-1                 0  
      27  hru027                     hru        27     4.2046E-1                 0  
      28  hru028                     hru        28     3.7743E-1                 0  
      29  hru029                     hru        29     2.0211E-1                 0  
      30  hru030                     hru        30     3.5026E-1                 0  
      31  hru031                     hru        31     1.5976E-1                 0  
      32  hru032                     hru        32     2.0344E-1                 0  
      33  hru033                     hru        33     2.8654E-1                 0  
      34  hru034                     hru        34     4.8019E-1                 0  
      35  hru035                     hru        35     3.0692E-1                 0  
      36  hru036                     hru        36     2.1289E-1                 0  
      37  hru037                     hru        37     2.4728E-1                 0  
      38  hru038                     hru        38     1.9072E-1                 0  
      39  hru039                     hru        39     4.4157E-1                 0  
      40  hru040                     hru        40     1.2043E-1                 0  
      41  hru041                     hru        41     2.6654E-1                 0  
      42  hru042                     hru        42     4.9719E-1                 0  
      43  hru043                     hru        43     2.3627E-1                 0  
      44  hru044                     hru        44     4.8952E-1                 0  
      45  hru045                     hru        45     2.1825E-1                 0  
      46  hru046                     hru        46     2.9223E-1                 0  
      47  hru047                     hru        47     1.7970E-1                 0  
      48  hru048                     hru        48     4.2104E-1                 0  
      49  hru049                     hru        49     3.9926E-1                 0  
      50  hru050                     hru        50     8.6364E-1                 0  
      51  hru051                     hru        51     1.3636E-1                 0  
      52  hru052                     hru        52     4.9315E-1                 0  
      53  hru053                     hru        53     2.3917E-1                 0  
      54  hru054                     hru        54     2.6769E-1                 0  
      55  hru055                     hru        55     4.4402E-1                 0  
      56  hru056                     hru        56     5.5598E-1                 0  
      57  hru057                     hru        57     1.7378E-1                 0  
      58  hru058                     hru        58     6.3844E-1                 0  
      59  hru059                     hru        59     1.8779E-1                 0  
      60  hru060                     hru        60     1.9412E-1                 0  
      61  hru061                     hru        61     2.0998E-1                 0  
      62  hru062                     hru        62     4.7219E-1                 0  
      63  hru063                     hru        63     1.2372E-1                 0  
      64  hru064                     hru        64     5.2352E-1                 0  
      65  hru065                     hru        65     4.7648E-1                 0  
      66  hru066                     hru        66     2.9201E-1                 0  
      67  hru067                     hru        67     5.4968E-1                 0  
      68  hru068                     hru        68     1.5831E-1                 0  
      69  hru069                     hru        69     2.8588E-1                 0  
      70  hru070                     hru        70     1.2756E-1                 0  
      71  hru071                     hru        71     4.6355E-1                 0  
      72  hru072                     hru        72     1.2301E-1                 0  
      73  hru073                     hru        73     6.2440E-1                 0  
      74  hru074                     hru        74     2.3460E-1                 0  
      75  hru075                     hru        75     1.4100E-1                 0  
      76  hru076                     hru        76     1.6766E-1                 0  
      77  hru077                     hru        77     4.5238E-1                 0  
      78  hru078                     hru        78     2.0534E-1                 0  
      79  hru079                     hru        79     1.7462E-1                 0  
      80  hru080                     hru        80     5.8693E-1                 0  
      81  hru081                     hru        81     1.0526E-1                 0  
      82  hru082                     hru        82     3.0781E-1                 0  
      83  hru083                     hru        83     5.9041E-1                 0  
      84  hru084                     hru        84     2.7163E-1                 0  
      85  hru085                     hru        85     1.3795E-1                 0  
      86  hru086                     hru        86     6.1914E-1                 0  
      87  hru087                     hru        87     3.8086E-1                 0  
      88  hru088                     hru        88     3.2069E-1                 0  
      89  hru089                     hru        89     6.7931E-1                 0  
      90  hru090                     hru        90     2.6421E-1                 0  
      91  hru091                     hru        91     6.0686E-1                 0  
      92  hru092                     hru        92     1.2894E-1                 0  
      93  hru093                     hru        93     3.9309E-1                 0  
      94  hru094                     hru        94     6.0691E-1                 0  
      95  hru095                     hru        95     6.4489E-1                 0  
      96  hru096                     hru        96     1.7007E-1                 0  
      97  hru097                     hru        97     1.8503E-1                 0  
      98  hru098                     hru        98     4.9536E-1                 0  
      99  hru099                     hru        99     3.8513E-1                 0  
     100  hru100                     hru       100     1.1951E-1                 0  
     101  hru101                     hru       101     3.3885E-1                 0  
     102  hru102                     hru       102     5.3583E-1                 0  
     103  hru103                     hru       103     1.2532E-1                 0  
     104  hru104                     hru       104     5.8312E-1                 0  
     105  hru105                     hru       105     2.3402E-1                 0  
     106  hru106                     hru       106     1.8286E-1                 0  
     107  hru107                     hru       107     2.8897E-1                 0  
     108  hru108                     hru       108     5.9022E-1                 0  
     109  hru109                     hru       109     1.2081E-1                 0  
