rout_unit.con: written by SWAT+ editor v1.2.3 on 2020-11-06 14:57
      id  name                gis_id          area           lat           lon          elev       rtu               wst       cst      ovfl      rule   out_tot       obj_typ    obj_id       hyd_typ          frac  
       1  rtu010                  10   20986.78509      -4.97921     -73.80518     117.74339         1      sta484s7375w         0         0         0         2           sdc         1           tot       1.00000           aqu         2           rhg       1.00000  
       2  rtu020                  20  786469.19874      -5.40444     -74.40514     112.70335         2      sta546s7438w         0         0         0         2           sdc         2           tot       1.00000           aqu         1           rhg       1.00000  
       3  rtu030                  30  742916.33333      -6.03916     -73.77752     157.36450         3      sta609s7375w         0         0         0         2           sdc         3           tot       1.00000           aqu         3           rhg       1.00000  
       4  rtu040                  40  1517372.31565      -6.47586     -75.07378     168.57268         4      sta640s7500w         0         0         0         2           sdc         4           tot       1.00000           aqu         5           rhg       1.00000  
       5  rtu050                  50  1496953.81252      -6.58751     -74.26136     188.22618         5      sta671s7438w         0         0         0         2           sdc         5           tot       1.00000           aqu         4           rhg       1.00000  
       6  rtu060                  60  379381.07451      -7.47935     -75.28750     189.13521         6      sta734s7531w         0         0         0         2           sdc         6           tot       1.00000           aqu         7           rhg       1.00000  
       7  rtu070                  70  187962.56361      -7.47257     -74.81318     211.58323         7      sta734s7469w         0         0         0         2           sdc         7           tot       1.00000           aqu         8           rhg       1.00000  
       8  rtu080                  80  339905.30179      -7.89659     -74.89966     179.93029         8      sta796s7500w         0         0         0         2           sdc         8           tot       1.00000           aqu        10           rhg       1.00000  
       9  rtu090                  90  957674.05234      -7.94206     -74.34028     212.77363         9      sta796s7438w         0         0         0         2           sdc         9           tot       1.00000           aqu         9           rhg       1.00000  
      10  rtu100                 100  558522.05182      -8.39262     -74.04803     206.23500        10      sta827s7406w         0         0         0         2           sdc        10           tot       1.00000           aqu        12           rhg       1.00000  
      11  rtu110                 110  1125052.91457      -8.70355     -75.35062     424.26559        11      sta859s7531w         0         0         0         2           sdc        11           tot       1.00000           aqu        13           rhg       1.00000  
      12  rtu120                 120  542689.45198      -8.09838     -75.60447     474.35818        12      sta796s7562w         0         0         0         2           sdc        12           tot       1.00000           aqu        11           rhg       1.00000  
      13  rtu130                 130  678138.79734      -7.30886     -75.81487     568.99548        13      sta734s7594w         0         0         0         2           sdc        13           tot       1.00000           aqu         6           rhg       1.00000  
      14  rtu140                 140     251.10133      -8.77733     -74.51113     151.05263        14      sta890s7438w         0         0         0         2           sdc        14           tot       1.00000           aqu        17           rhg       1.00000  
      15  rtu150                 150  2117973.66453      -9.98244     -73.94603     440.16311        15      sta984s7406w         0         0         0         2           sdc        15           tot       1.00000           aqu        16           rhg       1.00000  
      16  rtu160                 160  285350.23323      -8.97688     -74.81463     346.26631        16      sta890s7469w         0         0         0         2           sdc        16           tot       1.00000           aqu        15           rhg       1.00000  
      17  rtu170                 170  143676.21798      -9.25142     -75.00495     323.09819        17      sta921s7500w         0         0         0         2           sdc        17           tot       1.00000           aqu        18           rhg       1.00000  
      18  rtu180                 180  1683799.63599     -10.16064     -74.85740     768.84202        18     sta1015s7500w         0         0         0         2           sdc        18           tot       1.00000           aqu        20           rhg       1.00000  
      19  rtu190                 190  766156.42249     -10.00355     -75.60856    2042.09144        19     sta1015s7562w         0         0         0         2           sdc        19           tot       1.00000           aqu        19           rhg       1.00000  
      20  rtu200                 200  1343735.74389      -8.99220     -73.64243     230.92391        20      sta890s7375w         0         0         0         2           sdc        20           tot       1.00000           aqu        14           rhg       1.00000  
      21  rtu210                 210   29861.23484     -10.66169     -73.79717     353.61806        21     sta1077s7375w         0         0         0         2           sdc        21           tot       1.00000           aqu        24           rhg       1.00000  
      22  rtu220                 220  456000.02073     -11.19541     -73.77481     863.16999        22     sta1108s7375w         0         0         0         2           sdc        22           tot       1.00000           aqu        27           rhg       1.00000  
      23  rtu230                 230  950900.92428     -11.83373     -73.97312    1479.46632        23     sta1171s7406w         0         0         0         2           sdc        23           tot       1.00000           aqu        28           rhg       1.00000  
      24  rtu240                 240  104180.62148     -10.77044     -73.56998     312.56971        24     sta1077s7344w         0         0         0         2           sdc        24           tot       1.00000           aqu        23           rhg       1.00000  
      25  rtu250                 250  2560301.87846     -11.62323     -72.89185     814.13234        25     sta1171s7281w         0         0         0         2           sdc        25           tot       1.00000           aqu        26           rhg       1.00000  
      26  rtu260                 260  1830033.12281     -11.17998     -75.18459    2621.65506        26     sta1108s7531w         0         0         0         2           sdc        26           tot       1.00000           aqu        22           rhg       1.00000  
      27  rtu270                 270  581689.45375     -10.49698     -72.92663     340.65171        27     sta1046s7281w         0         0         0         2           sdc        27           tot       1.00000           aqu        21           rhg       1.00000  
      28  rtu280                 280  811962.59197     -12.20532     -74.59530    3104.65512        28     sta1233s7469w         0         0         0         2           sdc        28           tot       1.00000           aqu        29           rhg       1.00000  
      29  rtu290                 290  673460.38303     -12.83944     -73.67046    2394.21033        29     sta1296s7375w         0         0         0         2           sdc        29           tot       1.00000           aqu        30           rhg       1.00000  
      30  rtu300                 300  2135015.51553     -13.29336     -72.18650    3247.79919        30     sta1327s7219w         0         0         0         2           sdc        30           tot       1.00000           aqu        32           rhg       1.00000  
      31  rtu310                 310  549958.17478     -13.10273     -71.80745    3320.29612        31     sta1296s7188w         0         0         0         2           sdc        31           tot       1.00000           aqu        31           rhg       1.00000  
      32  rtu320                 320  1958682.90839     -11.88970     -75.62197    4214.06524        32     sta1202s7562w         0         0         0         2           sdc        32           tot       1.00000           aqu        25           rhg       1.00000  
      33  rtu330                 330    9495.59515     -13.40099     -73.18440    2454.16493        33     sta1327s7312w         0         0         0         2           sdc        33           tot       1.00000           aqu        36           rhg       1.00000  
      34  rtu340                 340  2653586.02367     -14.34429     -72.02556    4101.71706        34     sta1421s7188w         0         0         0         2           sdc        34           tot       1.00000           aqu        35           rhg       1.00000  
      35  rtu350                 350  807026.46840     -14.17514     -73.03298    3947.08249        35     sta1421s7312w         0         0         0         2           sdc        35           tot       1.00000           aqu        37           rhg       1.00000  
      36  rtu360                 360  2323123.45359     -13.80908     -74.04694    3848.97324        36     sta1389s7406w         0         0         0         2           sdc        36           tot       1.00000           aqu        34           rhg       1.00000  
      37  rtu370                 370  680874.48029     -13.11587     -74.49083    3851.75641        37     sta1327s7438w         0         0         0         2           sdc        37           tot       1.00000           aqu        33           rhg       1.00000  
