rout_unit.def: written by SWAT+ editor v1.2.3 on 2020-11-06 14:57
      id              name  elem_tot  elements  
       1            rtu010         2         3        -4  
       2            rtu020         2         1        -2  
       3            rtu030         2         5        -7  
       4            rtu040         2        11       -13  
       5            rtu050         2         8       -10  
       6            rtu060         2        17       -19  
       7            rtu070         2        20       -23  
       8            rtu080         2        27       -29  
       9            rtu090         2        24       -26  
      10            rtu100         2        34       -36  
      11            rtu110         2        37       -40  
      12            rtu120         2        30       -33  
      13            rtu130         2        14       -16  
      14            rtu140         2        50       -51  
      15            rtu150         2        47       -49  
      16            rtu160         2        44       -46  
      17            rtu170         2        52       -54  
      18            rtu180         2        57       -59  
      19            rtu190         2        55       -56  
      20            rtu200         2        41       -43  
      21            rtu210         2        69       -72  
      22            rtu220         2        80       -82  
      23            rtu230         2        83       -85  
      24            rtu240         2        66       -68  
      25            rtu250         2        76       -79  
      26            rtu260         2        64       -65  
      27            rtu270         2        60       -63  
      28            rtu280         2        86       -87  
      29            rtu290         2        88       -89  
      30            rtu300         2        93       -94  
      31            rtu310         2        90       -92  
      32            rtu320         2        73       -75  
      33            rtu330         2       104      -106  
      34            rtu340         2       101      -103  
      35            rtu350         2       107      -109  
      36            rtu360         2        98      -100  
      37            rtu370         2        95       -97  
