slr.cli: Solar radiation file names - file written by SWAT+ editor 2020-10-09 17:44:25.462025
filename
s101709.slr
s101713.slr
s101716.slr
s101719.slr
s101722.slr
s101725.slr
s101728.slr
s101731.slr
s101734.slr
s101738.slr
s101741.slr
s101744.slr
s101747.slr
s101750.slr
s101753.slr
s101756.slr
s101759.slr
s101763.slr
s105709.slr
s105713.slr
s105716.slr
s105719.slr
s105722.slr
s105725.slr
s105728.slr
s105731.slr
s105734.slr
s105738.slr
s105741.slr
s105744.slr
s105747.slr
s105750.slr
s105753.slr
s105756.slr
s105759.slr
s105763.slr
s108709.slr
s108713.slr
s108716.slr
s108719.slr
s108722.slr
s108725.slr
s108728.slr
s108731.slr
s108734.slr
s108738.slr
s108741.slr
s108744.slr
s108747.slr
s108750.slr
s108753.slr
s108756.slr
s108759.slr
s108763.slr
s111709.slr
s111713.slr
s111716.slr
s111719.slr
s111722.slr
s111725.slr
s111728.slr
s111731.slr
s111734.slr
s111738.slr
s111741.slr
s111744.slr
s111747.slr
s111750.slr
s111753.slr
s111756.slr
s111759.slr
s111763.slr
s114709.slr
s114713.slr
s114716.slr
s114719.slr
s114722.slr
s114725.slr
s114728.slr
s114731.slr
s114734.slr
s114738.slr
s114741.slr
s114744.slr
s114747.slr
s114750.slr
s114753.slr
s114756.slr
s114759.slr
s114763.slr
s117709.slr
s117713.slr
s117716.slr
s117719.slr
s117722.slr
s117725.slr
s117728.slr
s117731.slr
s117734.slr
s117738.slr
s117741.slr
s117744.slr
s117747.slr
s117750.slr
s117753.slr
s117756.slr
s117759.slr
s117763.slr
s120709.slr
s120713.slr
s120716.slr
s120719.slr
s120722.slr
s120725.slr
s120728.slr
s120731.slr
s120734.slr
s120738.slr
s120741.slr
s120744.slr
s120747.slr
s120750.slr
s120753.slr
s120756.slr
s120759.slr
s120763.slr
s123709.slr
s123713.slr
s123716.slr
s123719.slr
s123722.slr
s123725.slr
s123728.slr
s123731.slr
s123734.slr
s123738.slr
s123741.slr
s123744.slr
s123747.slr
s123750.slr
s123753.slr
s123756.slr
s123759.slr
s123763.slr
s126709.slr
s126713.slr
s126716.slr
s126719.slr
s126722.slr
s126725.slr
s126728.slr
s126731.slr
s126734.slr
s126738.slr
s126741.slr
s126744.slr
s126747.slr
s126750.slr
s126753.slr
s126756.slr
s126759.slr
s126763.slr
s130709.slr
s130713.slr
s130716.slr
s130719.slr
s130722.slr
s130725.slr
s130728.slr
s130731.slr
s130734.slr
s130738.slr
s130741.slr
s130744.slr
s130747.slr
s130750.slr
s130753.slr
s130756.slr
s130759.slr
s130763.slr
s133709.slr
s133713.slr
s133716.slr
s133719.slr
s133722.slr
s133725.slr
s133728.slr
s133731.slr
s133734.slr
s133738.slr
s133741.slr
s133744.slr
s133747.slr
s133750.slr
s133753.slr
s133756.slr
s133759.slr
s133763.slr
s136709.slr
s136713.slr
s136716.slr
s136719.slr
s136722.slr
s136725.slr
s136728.slr
s136731.slr
s136734.slr
s136738.slr
s136741.slr
s136744.slr
s136747.slr
s136750.slr
s136753.slr
s136756.slr
s136759.slr
s136763.slr
s139709.slr
s139713.slr
s139716.slr
s139719.slr
s139722.slr
s139725.slr
s139728.slr
s139731.slr
s139734.slr
s139738.slr
s139741.slr
s139744.slr
s139747.slr
s139750.slr
s139753.slr
s139756.slr
s139759.slr
s139763.slr
s142709.slr
s142713.slr
s142716.slr
s142719.slr
s142722.slr
s142725.slr
s142728.slr
s142731.slr
s142734.slr
s142738.slr
s142741.slr
s142744.slr
s142747.slr
s142750.slr
s142753.slr
s142756.slr
s142759.slr
s142763.slr
s145709.slr
s145713.slr
s145716.slr
s145719.slr
s145722.slr
s145725.slr
s145728.slr
s145731.slr
s145734.slr
s145738.slr
s145741.slr
s145744.slr
s145747.slr
s145750.slr
s145753.slr
s145756.slr
s145759.slr
s145763.slr
s48709.slr
s48713.slr
s48716.slr
s48719.slr
s48722.slr
s48725.slr
s48728.slr
s48731.slr
s48734.slr
s48738.slr
s48741.slr
s48744.slr
s48747.slr
s48750.slr
s48753.slr
s48756.slr
s48759.slr
s48763.slr
s52709.slr
s52713.slr
s52716.slr
s52719.slr
s52722.slr
s52725.slr
s52728.slr
s52731.slr
s52734.slr
s52738.slr
s52741.slr
s52744.slr
s52747.slr
s52750.slr
s52753.slr
s52756.slr
s52759.slr
s52763.slr
s55709.slr
s55713.slr
s55716.slr
s55719.slr
s55722.slr
s55725.slr
s55728.slr
s55731.slr
s55734.slr
s55738.slr
s55741.slr
s55744.slr
s55747.slr
s55750.slr
s55753.slr
s55756.slr
s55759.slr
s55763.slr
s58709.slr
s58713.slr
s58716.slr
s58719.slr
s58722.slr
s58725.slr
s58728.slr
s58731.slr
s58734.slr
s58738.slr
s58741.slr
s58744.slr
s58747.slr
s58750.slr
s58753.slr
s58756.slr
s58759.slr
s58763.slr
s61709.slr
s61713.slr
s61716.slr
s61719.slr
s61722.slr
s61725.slr
s61728.slr
s61731.slr
s61734.slr
s61738.slr
s61741.slr
s61744.slr
s61747.slr
s61750.slr
s61753.slr
s61756.slr
s61759.slr
s61763.slr
s64709.slr
s64713.slr
s64716.slr
s64719.slr
s64722.slr
s64725.slr
s64728.slr
s64731.slr
s64734.slr
s64738.slr
s64741.slr
s64744.slr
s64747.slr
s64750.slr
s64753.slr
s64756.slr
s64759.slr
s64763.slr
s67709.slr
s67713.slr
s67716.slr
s67719.slr
s67722.slr
s67725.slr
s67728.slr
s67731.slr
s67734.slr
s67738.slr
s67741.slr
s67744.slr
s67747.slr
s67750.slr
s67753.slr
s67756.slr
s67759.slr
s67763.slr
s70709.slr
s70713.slr
s70716.slr
s70719.slr
s70722.slr
s70725.slr
s70728.slr
s70731.slr
s70734.slr
s70738.slr
s70741.slr
s70744.slr
s70747.slr
s70750.slr
s70753.slr
s70756.slr
s70759.slr
s70763.slr
s73709.slr
s73713.slr
s73716.slr
s73719.slr
s73722.slr
s73725.slr
s73728.slr
s73731.slr
s73734.slr
s73738.slr
s73741.slr
s73744.slr
s73747.slr
s73750.slr
s73753.slr
s73756.slr
s73759.slr
s73763.slr
s76709.slr
s76713.slr
s76716.slr
s76719.slr
s76722.slr
s76725.slr
s76728.slr
s76731.slr
s76734.slr
s76738.slr
s76741.slr
s76744.slr
s76747.slr
s76750.slr
s76753.slr
s76756.slr
s76759.slr
s76763.slr
s80709.slr
s80713.slr
s80716.slr
s80719.slr
s80722.slr
s80725.slr
s80728.slr
s80731.slr
s80734.slr
s80738.slr
s80741.slr
s80744.slr
s80747.slr
s80750.slr
s80753.slr
s80756.slr
s80759.slr
s80763.slr
s83709.slr
s83713.slr
s83716.slr
s83719.slr
s83722.slr
s83725.slr
s83728.slr
s83731.slr
s83734.slr
s83738.slr
s83741.slr
s83744.slr
s83747.slr
s83750.slr
s83753.slr
s83756.slr
s83759.slr
s83763.slr
s86709.slr
s86713.slr
s86716.slr
s86719.slr
s86722.slr
s86725.slr
s86728.slr
s86731.slr
s86734.slr
s86738.slr
s86741.slr
s86744.slr
s86747.slr
s86750.slr
s86753.slr
s86756.slr
s86759.slr
s86763.slr
s89709.slr
s89713.slr
s89716.slr
s89719.slr
s89722.slr
s89725.slr
s89728.slr
s89731.slr
s89734.slr
s89738.slr
s89741.slr
s89744.slr
s89747.slr
s89750.slr
s89753.slr
s89756.slr
s89759.slr
s89763.slr
s92709.slr
s92713.slr
s92716.slr
s92719.slr
s92722.slr
s92725.slr
s92728.slr
s92731.slr
s92734.slr
s92738.slr
s92741.slr
s92744.slr
s92747.slr
s92750.slr
s92753.slr
s92756.slr
s92759.slr
s92763.slr
s95709.slr
s95713.slr
s95716.slr
s95719.slr
s95722.slr
s95725.slr
s95728.slr
s95731.slr
s95734.slr
s95738.slr
s95741.slr
s95744.slr
s95747.slr
s95750.slr
s95753.slr
s95756.slr
s95759.slr
s95763.slr
s98709.slr
s98713.slr
s98716.slr
s98719.slr
s98722.slr
s98725.slr
s98728.slr
s98731.slr
s98734.slr
s98738.slr
s98741.slr
s98744.slr
s98747.slr
s98750.slr
s98753.slr
s98756.slr
s98759.slr
s98763.slr
