soils.sol: written by SWAT+ editor v1.2.3 on 2020-11-06 14:57
name                            nly           hyd_grp        dp_tot    anion_excl      perc_crk  texture                              dp            bd           awc        soil_k        carbon          clay          silt          sand          rock           alb        usle_k            ec         caco3            ph  
PE10                              2                 B    1000.00000       0.50000       0.50000  null                       
                                                                                                                               300.00000       1.31000       0.15000      22.40000       2.93000       9.00000      79.00000      12.00000       0.00000       0.06000       0.26000       0.00000       0.00000       0.00000  
                                                                                                                              1000.00000       1.16000       0.15000      32.10000       2.16000      10.00000      83.00000       7.00000       0.00000       0.06000       0.26000       0.00000       0.00000       0.00000  
PE7                               2                 C    1000.00000       0.50000       0.50000  null                       
                                                                                                                               300.00000       1.29000       0.15000       7.00000       1.42000      51.00000      37.00000      12.00000       0.00000       0.06000       0.16000       0.00000       0.00000       0.00000  
                                                                                                                              1000.00000       1.36000       0.15000       4.70000       0.43000      51.00000      38.00000      11.00000       0.00000       0.06000       0.16000       0.00000       0.00000       0.00000  
PE6                               2                 C    1000.00000       0.50000       0.50000  null                       
                                                                                                                               300.00000       1.42000       0.15000       7.80000       0.75000      27.00000      21.00000      52.00000       0.00000       0.06000       0.15000       0.00000       0.00000       0.00000  
                                                                                                                              1000.00000       1.40000       0.15000       6.90000       0.35000      41.00000      17.00000      42.00000       0.00000       0.06000       0.15000       0.00000       0.00000       0.00000  
PE9                               2                 A    1000.00000       0.50000       0.50000  null                       
                                                                                                                               300.00000       1.31000       0.15000      53.80000       2.93000       9.00000      79.00000      12.00000       0.00000       0.06000       0.26000       0.00000       0.00000       0.00000  
                                                                                                                              1000.00000       1.16000       0.15000      76.90000       2.16000      10.00000      83.00000       7.00000       0.00000       0.06000       0.26000       0.00000       0.00000       0.00000  
PE11                              2                 C    1000.00000       0.50000       0.50000  null                       
                                                                                                                               300.00000       1.42000       0.15000       7.80000       0.75000      27.00000      21.00000      52.00000       0.00000       0.06000       0.15000       0.00000       0.00000       0.00000  
                                                                                                                              1000.00000       1.40000       0.15000       6.90000       0.35000      41.00000      17.00000      42.00000       0.00000       0.06000       0.15000       0.00000       0.00000       0.00000  
PE12                              2                 C    1000.00000       0.50000       0.50000  null                       
                                                                                                                               300.00000       1.30000       0.15000       8.30000       0.66000      24.00000      33.00000      43.00000       0.00000       0.06000       0.17000       0.00000       0.00000       0.00000  
                                                                                                                              1000.00000       1.36000       0.15000       6.70000       0.37000      24.00000      32.00000      44.00000       0.00000       0.06000       0.17000       0.00000       0.00000       0.00000  
BR214                             2                 C    1000.00000       0.50000       0.50000  null                       
                                                                                                                               300.00000       1.46000       0.15000       4.30000       0.90000      28.00000      27.00000      45.00000       0.00000       0.06000       0.15000       0.00000       0.00000       0.00000  
                                                                                                                              1000.00000       1.41000       0.15000       4.90000       0.50000      34.00000      25.00000      41.00000       0.00000       0.06000       0.15000       0.00000       0.00000       0.00000  
BR280                             2                 C    1000.00000       0.50000       0.50000  null                       
                                                                                                                               300.00000       1.24000       0.15000      12.00000       1.42000      35.00000      23.00000      42.00000       0.00000       0.06000       0.13000       0.00000       0.00000       0.00000  
                                                                                                                              1000.00000       1.28000       0.15000      10.30000       1.16000      43.00000      21.00000      36.00000       0.00000       0.06000       0.13000       0.00000       0.00000       0.00000  
PE14                              2                 C    1000.00000       0.50000       0.50000  null                       
                                                                                                                               300.00000       1.26000       0.15000      11.50000       2.85000      19.00000      39.00000      42.00000       0.00000       0.06000       0.13000       0.00000       0.00000       0.00000  
                                                                                                                              1000.00000       1.34000       0.15000       5.90000       0.57000      34.00000      31.00000      35.00000       0.00000       0.06000       0.13000       0.00000       0.00000       0.00000  
PE36                              1                 D     300.00000       0.50000       0.50000  null                       
                                                                                                                               300.00000       1.05000       0.06250      83.40000       2.72000      12.00000      16.00000      72.00000      18.00000       0.06000       0.12000       0.00000       0.00000       0.00000  
PE77                              2                 C    1000.00000       0.50000       0.50000  null                       
                                                                                                                               300.00000       1.32000       0.15000       7.40000       1.94000      48.00000      29.00000      23.00000       0.00000       0.06000       0.12000       0.00000       0.00000       0.00000  
                                                                                                                              1000.00000       1.33000       0.15000       7.70000       0.48000      48.00000      23.00000      29.00000       0.00000       0.06000       0.12000       0.00000       0.00000       0.00000  
PE13                              2                 C    1000.00000       0.50000       0.50000  null                       
                                                                                                                               300.00000       1.52000       0.15000       2.50000       0.69000      40.00000      28.00000      32.00000       0.00000       0.06000       0.15000       0.00000       0.00000       0.00000  
                                                                                                                              1000.00000       1.58000       0.15000       2.70000       0.37000      30.00000      24.00000      46.00000       0.00000       0.06000       0.15000       0.00000       0.00000       0.00000  
BR215                             2                 D    1000.00000       0.50000       0.50000  null                       
                                                                                                                               300.00000       1.49000       0.15000       2.00000       1.43000      45.00000      47.00000       8.00000       0.00000       0.06000       0.20000       0.00000       0.00000       0.00000  
                                                                                                                              1000.00000       1.52000       0.15000       1.80000       0.63000      60.00000      35.00000       5.00000       0.00000       0.06000       0.20000       0.00000       0.00000       0.00000  
PE75                              1                 D     300.00000       0.50000       0.50000  null                       
                                                                                                                               300.00000       1.33000       0.06250       9.00000       2.35000      18.00000      45.00000      37.00000      15.00000       0.06000       0.14000       0.00000       0.00000       0.00000  
PE76                              2                 C    1000.00000       0.50000       0.50000  null                       
                                                                                                                               300.00000       1.30000       0.15000       8.30000       0.66000      24.00000      33.00000      43.00000       0.00000       0.06000       0.17000       0.00000       0.00000       0.00000  
                                                                                                                              1000.00000       1.36000       0.15000       6.70000       0.37000      24.00000      32.00000      44.00000       0.00000       0.06000       0.17000       0.00000       0.00000       0.00000  
PE15                              2                 C    1000.00000       0.50000       0.50000  null                       
                                                                                                                               300.00000       1.26000       0.15000      11.50000       2.85000      19.00000      39.00000      42.00000       0.00000       0.06000       0.13000       0.00000       0.00000       0.00000  
                                                                                                                              1000.00000       1.34000       0.15000       5.90000       0.57000      34.00000      31.00000      35.00000       0.00000       0.06000       0.13000       0.00000       0.00000       0.00000  
PE78                              2                 B    1000.00000       0.50000       0.50000  null                       
                                                                                                                               300.00000       1.38000       0.15000      30.20000       1.45000      11.00000      20.00000      69.00000       2.00000       0.06000       0.14000       0.00000       0.00000       0.00000  
                                                                                                                              1000.00000       1.25000       0.15000      50.50000       0.74000      13.00000      14.00000      73.00000      19.00000       0.06000       0.14000       0.00000       0.00000       0.00000  
PE53                              1                 C    1000.00000       0.50000       0.50000  null                       
                                                                                                                              1000.00000       1.40000       0.15000      12.40000       0.97000      19.00000      24.00000      57.00000       0.00000       0.06000       0.16000       0.00000       0.00000       0.00000  
PE74                              2                 C    1000.00000       0.50000       0.50000  null                       
                                                                                                                               300.00000       1.28000       0.15000       7.40000       1.04000      60.00000      23.00000      17.00000       0.00000       0.06000       0.13000       0.00000       0.00000       0.00000  
                                                                                                                              1000.00000       1.36000       0.15000       5.00000       0.62000      74.00000      13.00000      13.00000       0.00000       0.06000       0.13000       0.00000       0.00000       0.00000  
PE54                              2                 C    1000.00000       0.50000       0.50000  null                       
                                                                                                                               300.00000       1.25000       0.15000      12.60000       2.02000      28.00000      24.00000      48.00000      70.00000       0.06000       0.12000       0.00000       0.00000       0.00000  
                                                                                                                              1000.00000       1.38000       0.15000      20.10000       0.33000      15.00000      22.00000      63.00000      90.00000       0.06000       0.12000       0.00000       0.00000       0.00000  
PE52                              1                 D     300.00000       0.50000       0.50000  null                       
                                                                                                                               300.00000       1.33000       0.06250       9.00000       2.35000      18.00000      45.00000      37.00000      15.00000       0.06000       0.14000       0.00000       0.00000       0.00000  
PE55                              1                 D     300.00000       0.50000       0.50000  null                       
                                                                                                                               300.00000       1.33000       0.06250       9.00000       2.35000      18.00000      45.00000      37.00000      15.00000       0.06000       0.14000       0.00000       0.00000       0.00000  
PE17                              2                 C    1000.00000       0.50000       0.50000  null                       
                                                                                                                               300.00000       1.30000       0.15000       8.60000       1.98000      26.00000      61.00000      13.00000       0.00000       0.06000       0.19000       0.00000       0.00000       0.00000  
                                                                                                                              1000.00000       1.37000       0.15000       4.80000       0.40000      32.00000      54.00000      14.00000       0.00000       0.06000       0.19000       0.00000       0.00000       0.00000  
PE70                              1                 D     300.00000       0.50000       0.50000  null                       
                                                                                                                               300.00000       1.44000       0.06250      23.30000       0.32000      10.00000      23.00000      67.00000      28.00000       0.06000       0.17000       0.00000       0.00000       0.00000  
PE72                              2                 A    1000.00000       0.50000       0.50000  null                       
                                                                                                                               300.00000       1.42000       0.11250      72.60000       1.05000       8.00000       9.00000      83.00000       0.00000       0.06000       0.10000       0.00000       0.00000       0.00000  
                                                                                                                              1000.00000       1.24000       0.11250      66.00000       0.59000      11.00000      12.00000      77.00000      39.00000       0.06000       0.10000       0.00000       0.00000       0.00000  
PE66                              2                 A    1000.00000       0.50000       0.50000  null                       
                                                                                                                               300.00000       1.42000       0.11250      72.60000       1.05000       8.00000       9.00000      83.00000       0.00000       0.06000       0.10000       0.00000       0.00000       0.00000  
                                                                                                                              1000.00000       1.24000       0.11250      66.00000       0.59000      11.00000      12.00000      77.00000      39.00000       0.06000       0.10000       0.00000       0.00000       0.00000  
PE71                              2                 A    1000.00000       0.50000       0.50000  null                       
                                                                                                                               300.00000       1.20000       0.15000      39.70000       0.41000      14.00000      23.00000      63.00000      39.00000       0.06000       0.17000       0.00000       0.00000       0.00000  
                                                                                                                              1000.00000       1.18000       0.15000      78.40000       0.22000       6.00000      21.00000      73.00000      60.00000       0.06000       0.17000       0.00000       0.00000       0.00000  
PE73                              2                 B    1000.00000       0.50000       0.50000  null                       
                                                                                                                               300.00000       1.21000       0.15000      21.50000       1.52000      21.00000      25.00000      54.00000      17.00000       0.06000       0.13000       0.00000       0.00000       0.00000  
                                                                                                                              1000.00000       1.28000       0.15000      39.30000       0.27000      13.00000      18.00000      69.00000      58.00000       0.06000       0.13000       0.00000       0.00000       0.00000  
PE65                              2                 A    1000.00000       0.50000       0.50000  null                       
                                                                                                                               300.00000       1.20000       0.15000      39.70000       0.41000      14.00000      23.00000      63.00000      39.00000       0.06000       0.17000       0.00000       0.00000       0.00000  
                                                                                                                              1000.00000       1.18000       0.15000      78.40000       0.22000       6.00000      21.00000      73.00000      60.00000       0.06000       0.17000       0.00000       0.00000       0.00000  
PE64                              1                 B    1000.00000       0.50000       0.50000  null                       
                                                                                                                              1000.00000       1.29000       0.15000      20.50000       1.87000      24.00000      16.00000      60.00000      39.00000       0.06000       0.12000       0.00000       0.00000       0.00000  
PE69                              1                 B    1000.00000       0.50000       0.50000  null                       
                                                                                                                              1000.00000       1.29000       0.15000      20.50000       1.87000      24.00000      16.00000      60.00000      39.00000       0.06000       0.12000       0.00000       0.00000       0.00000  
PE57                              1                 D     300.00000       0.50000       0.50000  null                       
                                                                                                                               300.00000       1.50000       0.06250      16.10000       5.50000       4.00000      44.00000      52.00000       4.00000       0.06000       0.15000       0.00000       0.00000       0.00000  
PE56                              1                 D     300.00000       0.50000       0.50000  null                       
                                                                                                                               300.00000       1.50000       0.06250      16.10000       5.50000       4.00000      44.00000      52.00000       4.00000       0.06000       0.15000       0.00000       0.00000       0.00000  
PE44                              1                 D     300.00000       0.50000       0.50000  null                       
                                                                                                                               300.00000       1.44000       0.06250      23.30000       0.32000      10.00000      23.00000      67.00000      28.00000       0.06000       0.17000       0.00000       0.00000       0.00000  
PE61                              1                 C    1000.00000       0.50000       0.50000  null                       
                                                                                                                              1000.00000       1.40000       0.15000      12.40000       0.97000      19.00000      24.00000      57.00000       0.00000       0.06000       0.16000       0.00000       0.00000       0.00000  
PE58                              1                 C    1000.00000       0.50000       0.50000  null                       
                                                                                                                              1000.00000       1.40000       0.15000      12.40000       0.97000      19.00000      24.00000      57.00000       0.00000       0.06000       0.16000       0.00000       0.00000       0.00000  
