time.sim: written by SWAT+ editor v1.2.3 on 2020-11-06 14:57
day_start  yrc_start   day_end   yrc_end      step
       0      2007         0      2017         0  
