tmp.cli: Temperature file names - file written by SWAT+ editor 2020-10-09 17:45:42.296512
filename
t101709.tmp
t101713.tmp
t101716.tmp
t101719.tmp
t101722.tmp
t101725.tmp
t101728.tmp
t101731.tmp
t101734.tmp
t101738.tmp
t101741.tmp
t101744.tmp
t101747.tmp
t101750.tmp
t101753.tmp
t101756.tmp
t101759.tmp
t101763.tmp
t105709.tmp
t105713.tmp
t105716.tmp
t105719.tmp
t105722.tmp
t105725.tmp
t105728.tmp
t105731.tmp
t105734.tmp
t105738.tmp
t105741.tmp
t105744.tmp
t105747.tmp
t105750.tmp
t105753.tmp
t105756.tmp
t105759.tmp
t105763.tmp
t108709.tmp
t108713.tmp
t108716.tmp
t108719.tmp
t108722.tmp
t108725.tmp
t108728.tmp
t108731.tmp
t108734.tmp
t108738.tmp
t108741.tmp
t108744.tmp
t108747.tmp
t108750.tmp
t108753.tmp
t108756.tmp
t108759.tmp
t108763.tmp
t111709.tmp
t111713.tmp
t111716.tmp
t111719.tmp
t111722.tmp
t111725.tmp
t111728.tmp
t111731.tmp
t111734.tmp
t111738.tmp
t111741.tmp
t111744.tmp
t111747.tmp
t111750.tmp
t111753.tmp
t111756.tmp
t111759.tmp
t111763.tmp
t114709.tmp
t114713.tmp
t114716.tmp
t114719.tmp
t114722.tmp
t114725.tmp
t114728.tmp
t114731.tmp
t114734.tmp
t114738.tmp
t114741.tmp
t114744.tmp
t114747.tmp
t114750.tmp
t114753.tmp
t114756.tmp
t114759.tmp
t114763.tmp
t117709.tmp
t117713.tmp
t117716.tmp
t117719.tmp
t117722.tmp
t117725.tmp
t117728.tmp
t117731.tmp
t117734.tmp
t117738.tmp
t117741.tmp
t117744.tmp
t117747.tmp
t117750.tmp
t117753.tmp
t117756.tmp
t117759.tmp
t117763.tmp
t120709.tmp
t120713.tmp
t120716.tmp
t120719.tmp
t120722.tmp
t120725.tmp
t120728.tmp
t120731.tmp
t120734.tmp
t120738.tmp
t120741.tmp
t120744.tmp
t120747.tmp
t120750.tmp
t120753.tmp
t120756.tmp
t120759.tmp
t120763.tmp
t123709.tmp
t123713.tmp
t123716.tmp
t123719.tmp
t123722.tmp
t123725.tmp
t123728.tmp
t123731.tmp
t123734.tmp
t123738.tmp
t123741.tmp
t123744.tmp
t123747.tmp
t123750.tmp
t123753.tmp
t123756.tmp
t123759.tmp
t123763.tmp
t126709.tmp
t126713.tmp
t126716.tmp
t126719.tmp
t126722.tmp
t126725.tmp
t126728.tmp
t126731.tmp
t126734.tmp
t126738.tmp
t126741.tmp
t126744.tmp
t126747.tmp
t126750.tmp
t126753.tmp
t126756.tmp
t126759.tmp
t126763.tmp
t130709.tmp
t130713.tmp
t130716.tmp
t130719.tmp
t130722.tmp
t130725.tmp
t130728.tmp
t130731.tmp
t130734.tmp
t130738.tmp
t130741.tmp
t130744.tmp
t130747.tmp
t130750.tmp
t130753.tmp
t130756.tmp
t130759.tmp
t130763.tmp
t133709.tmp
t133713.tmp
t133716.tmp
t133719.tmp
t133722.tmp
t133725.tmp
t133728.tmp
t133731.tmp
t133734.tmp
t133738.tmp
t133741.tmp
t133744.tmp
t133747.tmp
t133750.tmp
t133753.tmp
t133756.tmp
t133759.tmp
t133763.tmp
t136709.tmp
t136713.tmp
t136716.tmp
t136719.tmp
t136722.tmp
t136725.tmp
t136728.tmp
t136731.tmp
t136734.tmp
t136738.tmp
t136741.tmp
t136744.tmp
t136747.tmp
t136750.tmp
t136753.tmp
t136756.tmp
t136759.tmp
t136763.tmp
t139709.tmp
t139713.tmp
t139716.tmp
t139719.tmp
t139722.tmp
t139725.tmp
t139728.tmp
t139731.tmp
t139734.tmp
t139738.tmp
t139741.tmp
t139744.tmp
t139747.tmp
t139750.tmp
t139753.tmp
t139756.tmp
t139759.tmp
t139763.tmp
t142709.tmp
t142713.tmp
t142716.tmp
t142719.tmp
t142722.tmp
t142725.tmp
t142728.tmp
t142731.tmp
t142734.tmp
t142738.tmp
t142741.tmp
t142744.tmp
t142747.tmp
t142750.tmp
t142753.tmp
t142756.tmp
t142759.tmp
t142763.tmp
t145709.tmp
t145713.tmp
t145716.tmp
t145719.tmp
t145722.tmp
t145725.tmp
t145728.tmp
t145731.tmp
t145734.tmp
t145738.tmp
t145741.tmp
t145744.tmp
t145747.tmp
t145750.tmp
t145753.tmp
t145756.tmp
t145759.tmp
t145763.tmp
t48709.tmp
t48713.tmp
t48716.tmp
t48719.tmp
t48722.tmp
t48725.tmp
t48728.tmp
t48731.tmp
t48734.tmp
t48738.tmp
t48741.tmp
t48744.tmp
t48747.tmp
t48750.tmp
t48753.tmp
t48756.tmp
t48759.tmp
t48763.tmp
t52709.tmp
t52713.tmp
t52716.tmp
t52719.tmp
t52722.tmp
t52725.tmp
t52728.tmp
t52731.tmp
t52734.tmp
t52738.tmp
t52741.tmp
t52744.tmp
t52747.tmp
t52750.tmp
t52753.tmp
t52756.tmp
t52759.tmp
t52763.tmp
t55709.tmp
t55713.tmp
t55716.tmp
t55719.tmp
t55722.tmp
t55725.tmp
t55728.tmp
t55731.tmp
t55734.tmp
t55738.tmp
t55741.tmp
t55744.tmp
t55747.tmp
t55750.tmp
t55753.tmp
t55756.tmp
t55759.tmp
t55763.tmp
t58709.tmp
t58713.tmp
t58716.tmp
t58719.tmp
t58722.tmp
t58725.tmp
t58728.tmp
t58731.tmp
t58734.tmp
t58738.tmp
t58741.tmp
t58744.tmp
t58747.tmp
t58750.tmp
t58753.tmp
t58756.tmp
t58759.tmp
t58763.tmp
t61709.tmp
t61713.tmp
t61716.tmp
t61719.tmp
t61722.tmp
t61725.tmp
t61728.tmp
t61731.tmp
t61734.tmp
t61738.tmp
t61741.tmp
t61744.tmp
t61747.tmp
t61750.tmp
t61753.tmp
t61756.tmp
t61759.tmp
t61763.tmp
t64709.tmp
t64713.tmp
t64716.tmp
t64719.tmp
t64722.tmp
t64725.tmp
t64728.tmp
t64731.tmp
t64734.tmp
t64738.tmp
t64741.tmp
t64744.tmp
t64747.tmp
t64750.tmp
t64753.tmp
t64756.tmp
t64759.tmp
t64763.tmp
t67709.tmp
t67713.tmp
t67716.tmp
t67719.tmp
t67722.tmp
t67725.tmp
t67728.tmp
t67731.tmp
t67734.tmp
t67738.tmp
t67741.tmp
t67744.tmp
t67747.tmp
t67750.tmp
t67753.tmp
t67756.tmp
t67759.tmp
t67763.tmp
t70709.tmp
t70713.tmp
t70716.tmp
t70719.tmp
t70722.tmp
t70725.tmp
t70728.tmp
t70731.tmp
t70734.tmp
t70738.tmp
t70741.tmp
t70744.tmp
t70747.tmp
t70750.tmp
t70753.tmp
t70756.tmp
t70759.tmp
t70763.tmp
t73709.tmp
t73713.tmp
t73716.tmp
t73719.tmp
t73722.tmp
t73725.tmp
t73728.tmp
t73731.tmp
t73734.tmp
t73738.tmp
t73741.tmp
t73744.tmp
t73747.tmp
t73750.tmp
t73753.tmp
t73756.tmp
t73759.tmp
t73763.tmp
t76709.tmp
t76713.tmp
t76716.tmp
t76719.tmp
t76722.tmp
t76725.tmp
t76728.tmp
t76731.tmp
t76734.tmp
t76738.tmp
t76741.tmp
t76744.tmp
t76747.tmp
t76750.tmp
t76753.tmp
t76756.tmp
t76759.tmp
t76763.tmp
t80709.tmp
t80713.tmp
t80716.tmp
t80719.tmp
t80722.tmp
t80725.tmp
t80728.tmp
t80731.tmp
t80734.tmp
t80738.tmp
t80741.tmp
t80744.tmp
t80747.tmp
t80750.tmp
t80753.tmp
t80756.tmp
t80759.tmp
t80763.tmp
t83709.tmp
t83713.tmp
t83716.tmp
t83719.tmp
t83722.tmp
t83725.tmp
t83728.tmp
t83731.tmp
t83734.tmp
t83738.tmp
t83741.tmp
t83744.tmp
t83747.tmp
t83750.tmp
t83753.tmp
t83756.tmp
t83759.tmp
t83763.tmp
t86709.tmp
t86713.tmp
t86716.tmp
t86719.tmp
t86722.tmp
t86725.tmp
t86728.tmp
t86731.tmp
t86734.tmp
t86738.tmp
t86741.tmp
t86744.tmp
t86747.tmp
t86750.tmp
t86753.tmp
t86756.tmp
t86759.tmp
t86763.tmp
t89709.tmp
t89713.tmp
t89716.tmp
t89719.tmp
t89722.tmp
t89725.tmp
t89728.tmp
t89731.tmp
t89734.tmp
t89738.tmp
t89741.tmp
t89744.tmp
t89747.tmp
t89750.tmp
t89753.tmp
t89756.tmp
t89759.tmp
t89763.tmp
t92709.tmp
t92713.tmp
t92716.tmp
t92719.tmp
t92722.tmp
t92725.tmp
t92728.tmp
t92731.tmp
t92734.tmp
t92738.tmp
t92741.tmp
t92744.tmp
t92747.tmp
t92750.tmp
t92753.tmp
t92756.tmp
t92759.tmp
t92763.tmp
t95709.tmp
t95713.tmp
t95716.tmp
t95719.tmp
t95722.tmp
t95725.tmp
t95728.tmp
t95731.tmp
t95734.tmp
t95738.tmp
t95741.tmp
t95744.tmp
t95747.tmp
t95750.tmp
t95753.tmp
t95756.tmp
t95759.tmp
t95763.tmp
t98709.tmp
t98713.tmp
t98716.tmp
t98719.tmp
t98722.tmp
t98725.tmp
t98728.tmp
t98731.tmp
t98734.tmp
t98738.tmp
t98741.tmp
t98744.tmp
t98747.tmp
t98750.tmp
t98753.tmp
t98756.tmp
t98759.tmp
t98763.tmp
