topography.hyd: written by SWAT+ editor v1.2.3 on 2020-11-06 14:57
name                       slp       slp_len       lat_len      dist_cha         depos  
topohru001             0.01038      90.00000      90.00000     121.00000       0.00000  
topohru002             0.00000     121.00000     121.00000     121.00000       0.00000  
topohru003             0.01096      90.00000      90.00000     121.00000       0.00000  
topohru004             0.00000     121.00000     121.00000     121.00000       0.00000  
topohru005             0.04138      60.00000      60.00000     121.00000       0.00000  
topohru006             0.01348      90.00000      90.00000     121.00000       0.00000  
topohru007             0.00000     121.00000     121.00000     121.00000       0.00000  
topohru008             0.01396      90.00000      90.00000     121.00000       0.00000  
topohru009             0.04627      60.00000      60.00000     121.00000       0.00000  
topohru010             0.00000     121.00000     121.00000     121.00000       0.00000  
topohru011             0.00000     121.00000     121.00000     121.00000       0.00000  
topohru012             0.01188      90.00000      90.00000     121.00000       0.00000  
topohru013             0.03918      60.00000      60.00000     121.00000       0.00000  
topohru014             0.55517      10.00000      10.00000     121.00000       0.00000  
topohru015             0.21693      10.00000      10.00000     121.00000       0.00000  
topohru016             0.06381      30.00000      30.00000     121.00000       0.00000  
topohru017             0.01160      90.00000      90.00000     121.00000       0.00000  
topohru018             0.00000     121.00000     121.00000     121.00000       0.00000  
topohru019             0.04999      60.00000      60.00000     121.00000       0.00000  
topohru020             0.05274      30.00000      30.00000     121.00000       0.00000  
topohru021             0.16887      10.00000      10.00000     121.00000       0.00000  
topohru022             0.00000     121.00000     121.00000     121.00000       0.00000  
topohru023             0.01380      90.00000      90.00000     121.00000       0.00000  
topohru024             0.04783      60.00000      60.00000     121.00000       0.00000  
topohru025             0.00000     121.00000     121.00000     121.00000       0.00000  
topohru026             0.01381      90.00000      90.00000     121.00000       0.00000  
topohru027             0.04700      60.00000      60.00000     121.00000       0.00000  
topohru028             0.01344      90.00000      90.00000     121.00000       0.00000  
topohru029             0.00000     121.00000     121.00000     121.00000       0.00000  
topohru030             0.05153      30.00000      30.00000     121.00000       0.00000  
topohru031             0.17584      10.00000      10.00000     121.00000       0.00000  
topohru032             0.00000     121.00000     121.00000     121.00000       0.00000  
topohru033             0.01385      90.00000      90.00000     121.00000       0.00000  
topohru034             0.04916      60.00000      60.00000     121.00000       0.00000  
topohru035             0.01409      90.00000      90.00000     121.00000       0.00000  
topohru036             0.00000     121.00000     121.00000     121.00000       0.00000  
topohru037             0.01404      90.00000      90.00000     121.00000       0.00000  
topohru038             0.00000     121.00000     121.00000     121.00000       0.00000  
topohru039             0.05406      30.00000      30.00000     121.00000       0.00000  
topohru040             0.14998      10.00000      10.00000     121.00000       0.00000  
topohru041             0.04684      60.00000      60.00000     121.00000       0.00000  
topohru042             0.01257      90.00000      90.00000     121.00000       0.00000  
topohru043             0.00000     121.00000     121.00000     121.00000       0.00000  
topohru044             0.05118      30.00000      30.00000     121.00000       0.00000  
topohru045             0.00000     121.00000     121.00000     121.00000       0.00000  
topohru046             0.01410      90.00000      90.00000     121.00000       0.00000  
topohru047             0.00000     121.00000     121.00000     121.00000       0.00000  
topohru048             0.01346      90.00000      90.00000     121.00000       0.00000  
topohru049             0.04969      60.00000      60.00000     121.00000       0.00000  
topohru050             0.00000     121.00000     121.00000     121.00000       0.00000  
topohru051             0.05058      30.00000      30.00000     121.00000       0.00000  
topohru052             0.05323      30.00000      30.00000     121.00000       0.00000  
topohru053             0.00000     121.00000     121.00000     121.00000       0.00000  
topohru054             0.01405      90.00000      90.00000     121.00000       0.00000  
topohru055             0.26985      10.00000      10.00000     121.00000       0.00000  
topohru056             0.62552      10.00000      10.00000     121.00000       0.00000  
topohru057             0.55003      10.00000      10.00000     121.00000       0.00000  
topohru058             0.22657      10.00000      10.00000     121.00000       0.00000  
topohru059             0.06529      30.00000      30.00000     121.00000       0.00000  
topohru060             0.00000     121.00000     121.00000     121.00000       0.00000  
topohru061             0.01380      90.00000      90.00000     121.00000       0.00000  
topohru062             0.05734      30.00000      30.00000     121.00000       0.00000  
topohru063             0.13631      10.00000      10.00000     121.00000       0.00000  
topohru064             0.25171      10.00000      10.00000     121.00000       0.00000  
topohru065             0.62027      10.00000      10.00000     121.00000       0.00000  
topohru066             0.01442      90.00000      90.00000     121.00000       0.00000  
topohru067             0.05231      30.00000      30.00000     121.00000       0.00000  
topohru068             0.00000     121.00000     121.00000     121.00000       0.00000  
topohru069             0.01398      90.00000      90.00000     121.00000       0.00000  
topohru070             0.00000     121.00000     121.00000     121.00000       0.00000  
topohru071             0.05585      30.00000      30.00000     121.00000       0.00000  
topohru072             0.13229      10.00000      10.00000     121.00000       0.00000  
topohru073             0.21824      10.00000      10.00000     121.00000       0.00000  
topohru074             0.06394      30.00000      30.00000     121.00000       0.00000  
topohru075             0.54531      10.00000      10.00000     121.00000       0.00000  
topohru076             0.14946      10.00000      10.00000     121.00000       0.00000  
topohru077             0.05705      30.00000      30.00000     121.00000       0.00000  
topohru078             0.01403      90.00000      90.00000     121.00000       0.00000  
topohru079             0.00000     121.00000     121.00000     121.00000       0.00000  
topohru080             0.23390      10.00000      10.00000     121.00000       0.00000  
topohru081             0.06689      30.00000      30.00000     121.00000       0.00000  
topohru082             0.64055      10.00000      10.00000     121.00000       0.00000  
topohru083             0.23033      10.00000      10.00000     121.00000       0.00000  
topohru084             0.61973      10.00000      10.00000     121.00000       0.00000  
topohru085             0.06645      30.00000      30.00000     121.00000       0.00000  
topohru086             0.67391      10.00000      10.00000     121.00000       0.00000  
topohru087             0.26485      10.00000      10.00000     121.00000       0.00000  
topohru088             0.27422      10.00000      10.00000     121.00000       0.00000  
topohru089             0.67637      10.00000      10.00000     121.00000       0.00000  
topohru090             0.57320      10.00000      10.00000     121.00000       0.00000  
topohru091             0.23486      10.00000      10.00000     121.00000       0.00000  
topohru092             0.06789      30.00000      30.00000     121.00000       0.00000  
topohru093             0.61625      10.00000      10.00000     121.00000       0.00000  
topohru094             0.24318      10.00000      10.00000     121.00000       0.00000  
topohru095             0.22881      10.00000      10.00000     121.00000       0.00000  
topohru096             0.06593      30.00000      30.00000     121.00000       0.00000  
topohru097             0.54958      10.00000      10.00000     121.00000       0.00000  
topohru098             0.23967      10.00000      10.00000     121.00000       0.00000  
topohru099             0.64334      10.00000      10.00000     121.00000       0.00000  
topohru100             0.06496      30.00000      30.00000     121.00000       0.00000  
topohru101             0.64215      10.00000      10.00000     121.00000       0.00000  
topohru102             0.23542      10.00000      10.00000     121.00000       0.00000  
topohru103             0.06556      30.00000      30.00000     121.00000       0.00000  
topohru104             0.71903      10.00000      10.00000     121.00000       0.00000  
topohru105             0.27046      10.00000      10.00000     121.00000       0.00000  
topohru106             0.00000     121.00000     121.00000     121.00000       0.00000  
topohru107             0.58512      10.00000      10.00000     121.00000       0.00000  
topohru108             0.23766      10.00000      10.00000     121.00000       0.00000  
topohru109             0.06643      30.00000      30.00000     121.00000       0.00000  
toportu010             0.01642     121.00000     121.00000     121.00000       0.00000  
toportu020             0.00718     121.00000     121.00000     121.00000       0.00000  
toportu030             0.01856     121.00000     121.00000     121.00000       0.00000  
toportu040             0.02553     121.00000     121.00000     121.00000       0.00000  
toportu050             0.02538     121.00000     121.00000     121.00000       0.00000  
toportu060             0.02751     121.00000     121.00000     121.00000       0.00000  
toportu070             0.03779     121.00000     121.00000     121.00000       0.00000  
toportu080             0.01972     121.00000     121.00000     121.00000       0.00000  
toportu090             0.02440     121.00000     121.00000     121.00000       0.00000  
toportu100             0.02413     121.00000     121.00000     121.00000       0.00000  
toportu110             0.09057     121.00000     121.00000     121.00000       0.00000  
toportu120             0.12518     121.00000     121.00000     121.00000       0.00000  
toportu130             0.15701     121.00000     121.00000     121.00000       0.00000  
toportu140             0.01742     121.00000     121.00000     121.00000       0.00000  
toportu150             0.07557     121.00000     121.00000     121.00000       0.00000  
toportu160             0.07644     121.00000     121.00000     121.00000       0.00000  
toportu170             0.07881     121.00000     121.00000     121.00000       0.00000  
toportu180             0.16558     121.00000     121.00000     121.00000       0.00000  
toportu190             0.31977     121.00000     121.00000     121.00000       0.00000  
toportu200             0.01993     121.00000     121.00000     121.00000       0.00000  
toportu210             0.08664     121.00000     121.00000     121.00000       0.00000  
toportu220             0.20196     121.00000     121.00000     121.00000       0.00000  
toportu230             0.26506     121.00000     121.00000     121.00000       0.00000  
toportu240             0.04760     121.00000     121.00000     121.00000       0.00000  
toportu250             0.14964     121.00000     121.00000     121.00000       0.00000  
toportu260             0.36191     121.00000     121.00000     121.00000       0.00000  
toportu270             0.04654     121.00000     121.00000     121.00000       0.00000  
toportu280             0.49842     121.00000     121.00000     121.00000       0.00000  
toportu290             0.43352     121.00000     121.00000     121.00000       0.00000  
toportu300             0.36673     121.00000     121.00000     121.00000       0.00000  
toportu310             0.37253     121.00000     121.00000     121.00000       0.00000  
toportu320             0.20410     121.00000     121.00000     121.00000       0.00000  
toportu330             0.52750     121.00000     121.00000     121.00000       0.00000  
toportu340             0.25259     121.00000     121.00000     121.00000       0.00000  
toportu350             0.35654     121.00000     121.00000     121.00000       0.00000  
toportu360             0.26262     121.00000     121.00000     121.00000       0.00000  
toportu370             0.24959     121.00000     121.00000     121.00000       0.00000  
