weather-wgn.cli: written by SWAT+ editor v1.2.3 on 2020-11-06 14:57
101s716w                      -10.14740     -71.56250     300.00000        32  
 tmp_max_ave   tmp_min_ave    tmp_max_sd    tmp_min_sd       pcp_ave        pcp_sd      pcp_skew       wet_dry       wet_wet      pcp_days       pcp_hhr       slr_ave       dew_ave       wnd_ave  
    29.87410      20.98570       3.22833       1.18231     189.47600       9.31847       6.59348       0.61446       0.46368      25.81250      47.10870      19.56620       0.84927       1.18410  
    29.31200      20.79760       3.11758       1.28374     204.44400      11.20340       6.03582       0.65892       0.47742      24.21880      52.89660      18.86120       0.86833       1.14619  
    29.31730      20.72700       3.02041       1.39023     214.49700       9.69513       6.16602       0.62774       0.47953      26.71880      44.89110      18.46370       0.87933       1.08067  
    29.32420      20.12280       2.97049       1.57504     148.73400       7.16212       4.54075       0.55157       0.45319      23.03120      31.40100      18.68930       0.86510       1.09769  
    29.86020      18.76110       2.99929       2.03981      78.70340       3.71461       2.30919       0.33949       0.42294      17.43750      10.77800      18.67110       0.81940       1.12088  
    30.70510      17.64430       2.80436       2.16007      25.66110       1.99245       3.20159       0.18324       0.30078       8.00000       4.82274      18.12950       0.74574       1.18174  
    31.80490      17.02110       3.00797       2.47918      14.72980       1.69630       5.46675       0.09016       0.28985       4.31250       6.76217      18.48990       0.65321       1.27652  
    34.92600      18.55810       3.05232       2.38777       9.97945       1.54658       9.15481       0.07063       0.26000       3.12500       9.43761      20.18590       0.54724       1.34073  
    36.17800      20.19080       3.10633       1.96650      20.22160       2.72413       7.98809       0.12095       0.27215       4.93750      12.80340      21.10610       0.53925       1.39903  
    35.50370      20.58660       3.51886       1.70354      75.03690       7.21258       7.95476       0.23988       0.34857      10.93750      42.28050      21.39600       0.63079       1.32851  
    32.91570      20.60160       3.93757       1.54493     140.12900      10.19660       6.22528       0.43401       0.40989      17.68750      40.11550      20.85690       0.73797       1.31299  
    30.77510      20.88970       3.47149       1.29088     178.05800       9.34911       6.13791       0.54505       0.45478      23.84380      48.58910      20.04360       0.81675       1.26226  
101s719w                      -10.14740     -71.87500     320.00000        32  
 tmp_max_ave   tmp_min_ave    tmp_max_sd    tmp_min_sd       pcp_ave        pcp_sd      pcp_skew       wet_dry       wet_wet      pcp_days       pcp_hhr       slr_ave       dew_ave       wnd_ave  
    29.54160      20.78450       3.20620       1.15449     184.58400       8.95232       5.88334       0.64671       0.46909      25.78120      39.70310      19.33490       0.85259       1.21560  
    29.07590      20.56890       3.11649       1.28350     191.89500      10.74850       6.71550       0.68504       0.47362      24.28120      59.31090      18.55350       0.86996       1.17863  
    29.03250      20.56560       2.99775       1.34233     210.14600       8.89825       4.62632       0.65468       0.47714      26.65620      38.88950      18.39990       0.87992       1.11981  
    29.06300      19.99010       2.93259       1.56390     148.10100       7.44012       5.97968       0.57073       0.45960      23.59380      39.09740      18.62440       0.86669       1.13054  
    29.53520      18.65010       2.97542       2.06994      81.33500       3.85235       2.66286       0.33726       0.42152      17.71880      15.04200      18.60800       0.82223       1.14913  
    30.36990      17.62620       2.80783       2.14425      27.07220       2.06399       3.31387       0.18314       0.34926       8.50000       5.21177      17.93980       0.74915       1.21114  
    31.47730      17.05340       2.99777       2.43864      15.74780       1.68841       5.17968       0.09427       0.30519       4.81250       6.88593      18.47600       0.65491       1.30902  
    34.60330      18.61880       3.04761       2.38958      10.42250       1.44733       7.37136       0.08096       0.27826       3.59375       7.37921      20.24850       0.54800       1.38536  
    35.86230      20.11520       3.09629       1.97664      21.56070       3.06710      10.22690       0.13590       0.29444       5.62500      18.31040      21.04790       0.54497       1.43496  
    35.13830      20.55510       3.55295       1.70915      70.78040       6.86172       9.27731       0.25786       0.32584      11.12500      45.49130      21.59170       0.63469       1.36262  
    32.59540      20.52500       3.89469       1.51640     133.94100       9.28150       5.98438       0.44531       0.41493      18.00000      36.24240      20.99710       0.74095       1.34771  
    30.47500      20.74620       3.43024       1.28519     172.17700       8.35278       4.33463       0.55399       0.45985      24.12500      33.14820      20.00360       0.81909       1.29207  
101s722w                      -10.14740     -72.18750     409.00000        32  
 tmp_max_ave   tmp_min_ave    tmp_max_sd    tmp_min_sd       pcp_ave        pcp_sd      pcp_skew       wet_dry       wet_wet      pcp_days       pcp_hhr       slr_ave       dew_ave       wnd_ave  
    28.68810      20.43500       3.14303       1.16369     220.21400       9.06622       4.66468       0.65116       0.47856      26.96880      39.79550      18.51440       0.86779       1.25741  
    28.35860      20.23850       3.03150       1.35024     221.89100      11.50600       6.76160       0.65741       0.47739      24.87500      64.52420      17.88950       0.88153       1.21927  
    28.33170      20.28290       2.94912       1.37664     236.91100       9.26905       3.77662       0.70370       0.47511      27.62500      32.29800      17.76170       0.88979       1.16430  
    28.52320      19.61450       2.88478       1.64355     169.21600       8.13920       6.42422       0.50568       0.47194      24.50000      38.34340      18.22310       0.87586       1.17553  
    28.96460      18.16620       2.96328       2.14650      94.21520       4.10296       2.94991       0.35040       0.43387      19.37500      18.21910      18.27130       0.83271       1.19058  
    29.77640      17.17440       2.76747       2.18345      36.95530       2.56348       3.54897       0.20315       0.36615      10.15620       9.02754      17.60250       0.76306       1.24576  
    30.82310      16.72510       2.94422       2.41303      20.83410       1.87676       3.89050       0.11292       0.34872       6.09375       5.44999      18.16930       0.66862       1.34602  
    33.95000      18.27150       3.04946       2.40889      16.06760       1.82878       5.42413       0.10262       0.29870       4.81250       6.55489      19.90060       0.56002       1.42819  
    35.17950      19.60270       3.15199       2.00282      27.43710       3.57625       9.93357       0.18256       0.27876       7.06250      21.04900      20.44080       0.56085       1.47503  
    34.33090      20.06510       3.55229       1.70099      83.00420       6.53312       6.96673       0.30634       0.35141      13.25000      35.18250      20.91360       0.65007       1.41425  
    31.81750      20.11400       3.87958       1.51979     158.01900       9.15909       4.76557       0.51242       0.42790      19.93750      36.79570      20.44080       0.75665       1.39105  
    29.68780      20.36950       3.39404       1.30252     202.69100       8.61047       3.77760       0.62500       0.46067      25.03120      34.46090      19.32550       0.83326       1.32944  
101s725w                      -10.14740     -72.50000     384.00000        32  
 tmp_max_ave   tmp_min_ave    tmp_max_sd    tmp_min_sd       pcp_ave        pcp_sd      pcp_skew       wet_dry       wet_wet      pcp_days       pcp_hhr       slr_ave       dew_ave       wnd_ave  
    28.09070      20.26940       3.15302       1.15810     264.87500       9.67034       3.45781       0.58947       0.48941      28.03120      36.79150      17.58110       0.87719       1.26061  
    27.83680      20.16180       2.98603       1.33981     265.47100      12.96960       6.47921       0.73750       0.47815      25.75000      67.05960      17.15150       0.88828       1.22593  
    27.81010      20.15870       2.97112       1.38129     283.30000      10.55370       3.99948       0.68831       0.48743      28.59380      43.22500      16.83770       0.89728       1.17577  
    28.15530      19.44070       2.92386       1.69196     191.53400       8.05936       5.59475       0.50000       0.47666      25.43750      40.31590      17.59080       0.88240       1.18742  
    28.61490      18.00250       2.98224       2.12911     111.29200       4.59516       3.51327       0.35030       0.44749      20.53120      22.80450      17.85320       0.83881       1.19670  
    29.43000      16.95470       2.81479       2.16065      47.48140       3.01937       3.25694       0.21585       0.37875      11.46880      10.82100      17.30990       0.77133       1.24258  
    30.46860      16.44610       2.95654       2.37561      26.53850       2.18252       3.41757       0.12387       0.35023       6.78125       5.55393      17.74850       0.67811       1.34182  
    33.57350      18.04650       3.11416       2.31273      22.11000       2.30264       4.63173       0.11179       0.32584       5.56250       6.58042      19.43410       0.56818       1.42143  
    34.76460      19.28480       3.22573       1.94015      35.45050       3.77487       7.33722       0.22046       0.28947       8.31250      16.87990      19.65210       0.56914       1.47725  
    33.84300      19.92190       3.65934       1.61873     103.68400       6.69524       4.38825       0.36382       0.37014      15.28120      26.44910      20.03260       0.65622       1.43551  
    31.31320      19.96340       3.90082       1.45397     184.74300       9.21111       3.81506       0.50719       0.44428      21.31250      29.68210      19.62290       0.76494       1.40244  
    29.09890      20.17860       3.43206       1.28417     239.41900       9.39316       3.84286       0.65517       0.46429      26.25000      36.37930      18.45690       0.84246       1.32959  
101s728w                      -10.14740     -72.81250     500.00000        32  
 tmp_max_ave   tmp_min_ave    tmp_max_sd    tmp_min_sd       pcp_ave        pcp_sd      pcp_skew       wet_dry       wet_wet      pcp_days       pcp_hhr       slr_ave       dew_ave       wnd_ave  
    27.75140      19.91980       3.20490       1.21034     277.04200      10.93950       4.62488       0.60494       0.48738      28.46880      50.30500      16.80520       0.88225       1.21970  
    27.46700      19.88570       3.07072       1.35090     290.74600      13.72730       5.50227       0.71429       0.48395      26.28120      57.97950      16.35510       0.89416       1.19439  
    27.38190      19.90170       3.03141       1.39727     326.14500      11.67480       3.76910       0.65625       0.48599      29.00000      48.46230      15.89920       0.90353       1.15280  
    27.78690      19.22150       2.97069       1.71027     238.76500       8.75224       4.45973       0.51695       0.48931      26.31250      42.18800      16.85440       0.88974       1.15984  
    28.26700      17.81470       3.02677       2.09932     139.54400       5.32282       2.75559       0.33108       0.46187      21.71880      23.24970      17.39060       0.84730       1.15718  
    29.04250      16.55300       2.86640       2.14054      61.98710       3.56649       2.49762       0.22924       0.39163      12.68750       9.34087      17.01870       0.78318       1.19202  
    30.10880      15.82740       2.94102       2.41412      33.02640       2.63717       3.14447       0.12435       0.36842       7.12500       5.71255      17.37380       0.69517       1.28119  
    33.16090      17.39410       3.18048       2.29816      29.47230       2.80700       4.25795       0.13555       0.31905       6.56250       9.60373      19.01360       0.58459       1.35327  
    34.34870      18.63370       3.29417       1.80988      45.85240       4.35434       7.57244       0.25234       0.33333       9.93750      22.92950      19.04540       0.58302       1.40757  
    33.46620      19.32410       3.73212       1.52429     132.00200       7.91035       4.18407       0.38303       0.39748      17.37500      25.62720      19.27720       0.67068       1.37377  
    30.92410      19.58410       3.94692       1.40572     209.19400      10.08840       4.51335       0.53556       0.45354      22.53120      41.31380      18.88660       0.77463       1.34996  
    28.73490      19.83040       3.50481       1.26280     259.32400      10.19220       3.58445       0.71545       0.46868      26.93750      36.29340      17.67060       0.84764       1.28551  
101s731w                      -10.14740     -73.12500     510.00000        32  
 tmp_max_ave   tmp_min_ave    tmp_max_sd    tmp_min_sd       pcp_ave        pcp_sd      pcp_skew       wet_dry       wet_wet      pcp_days       pcp_hhr       slr_ave       dew_ave       wnd_ave  
    27.68640      19.57500       3.32099       1.27063     282.52700      11.74770       5.29401       0.66667       0.48337      28.18750      56.80340      17.26870       0.87928       1.19961  
    27.41270      19.55330       3.23012       1.36432     300.82600      13.39220       4.23702       0.73333       0.47648      25.90620      47.42410      16.58730       0.89340       1.17421  
    27.28890      19.59950       3.16493       1.38991     346.21800      12.72290       3.30252       0.77143       0.48807      28.81250      40.46070      16.04650       0.90273       1.12625  
    27.69670      19.00880       3.06237       1.63681     259.33700       9.16810       3.47018       0.54867       0.48406      26.46880      36.90020      17.00300       0.88981       1.12400  
    28.23050      17.69820       2.96950       1.93453     151.03300       5.68961       2.01503       0.33103       0.45934      21.90620      17.73550      17.58110       0.84748       1.12101  
    28.77890      16.38880       2.72856       1.96933      69.09190       3.97339       2.74585       0.23594       0.37897      12.78120      12.57570      17.33160       0.78353       1.16690  
    29.80770      15.64500       2.85123       2.19719      36.73870       2.87237       3.16741       0.14514       0.35270       7.53125       8.58204      17.75570       0.69520       1.25929  
    32.83580      17.00140       3.08296       2.13548      30.61650       3.03486       5.04626       0.14656       0.32579       6.90625      11.53500      19.65780       0.58278       1.34187  
    34.06340      18.19140       3.18370       1.71277      47.06850       4.29933       7.49669       0.24683       0.34451      10.25000      22.07510      19.95510       0.58188       1.38423  
    33.36520      19.11290       3.66249       1.38216     141.59400       8.65903       5.23694       0.40048       0.40517      18.12500      42.97630      20.13730       0.66856       1.32872  
    30.88460      19.27850       3.99132       1.37916     220.56400      11.17060       5.08649       0.55909       0.45405      23.12500      51.95310      19.36650       0.77387       1.30740  
    28.70560      19.59260       3.62744       1.25159     267.68900      10.61600       3.25534       0.67391       0.46281      26.46880      36.46520      18.06930       0.84322       1.26144  
101s734w                      -10.14740     -73.43750     500.00000        32  
 tmp_max_ave   tmp_min_ave    tmp_max_sd    tmp_min_sd       pcp_ave        pcp_sd      pcp_skew       wet_dry       wet_wet      pcp_days       pcp_hhr       slr_ave       dew_ave       wnd_ave  
    29.08190      19.96200       3.59415       1.30052     249.73100      11.58180       5.20135       0.63125       0.46514      26.00000      53.33790      19.69020       0.84144       1.22068  
    28.93350      19.87640       3.51280       1.37561     246.97800      12.22640       3.78800       0.67857       0.46859      23.87500      38.23590      19.08050       0.85491       1.18800  
    28.82100      19.80960       3.52687       1.41339     283.01100      12.74360       3.95959       0.72903       0.46595      26.15620      54.90130      18.32990       0.86647       1.12045  
    29.41980      19.27020       3.37486       1.53095     168.24000       8.08960       3.55474       0.56561       0.44790      23.09380      26.54280      18.82870       0.85104       1.10677  
    29.90420      18.11660       3.00374       1.80572      78.61010       4.00466       2.89713       0.32706       0.42579      17.68750      10.92580      18.75860       0.80927       1.10585  
    30.16890      16.95940       2.59457       1.93008      31.45180       2.55240       4.39335       0.19614       0.34146       8.96875       9.85997      18.48350       0.74537       1.16746  
    30.97590      16.45140       2.79438       2.14085      15.58950       1.49121       3.91545       0.11138       0.32571       5.46875       3.76891      19.05890       0.65705       1.26867  
    33.96890      17.80890       2.91740       2.13912      11.21510       1.89547      10.74400       0.08239       0.25472       3.31250      12.79800      21.70850       0.54458       1.36863  
    35.35030      18.89710       3.07327       1.83371      17.65830       2.67045      12.22450       0.13333       0.29444       5.62500      19.34500      23.17130       0.53995       1.43168  
    34.90830      19.82550       3.56900       1.44774      82.02990       8.44945      10.27970       0.25990       0.37713      12.84380      58.38660      23.45300       0.62060       1.37981  
    32.48590      19.81830       4.04986       1.41076     152.91400      10.48060       5.29106       0.48477       0.41903      18.71880      46.24170      21.83080       0.72733       1.34179  
    30.16980      20.02910       3.85975       1.32697     212.07500      10.72730       3.67484       0.57613       0.43935      23.18750      32.33160      20.26560       0.80031       1.28442  
101s738w                      -10.14740     -73.75000     359.00000        32  
 tmp_max_ave   tmp_min_ave    tmp_max_sd    tmp_min_sd       pcp_ave        pcp_sd      pcp_skew       wet_dry       wet_wet      pcp_days       pcp_hhr       slr_ave       dew_ave       wnd_ave  
    30.62980      20.97950       3.70459       1.29434     160.85200      10.74900       5.16582       0.49279       0.42946      20.15620      48.13970      19.82060       0.79441       1.23783  
    30.56320      20.83730       3.64052       1.34698     160.07000      11.61050       4.37329       0.58823       0.40636      18.68750      41.57760      19.64000       0.80822       1.21789  
    30.44020      20.62200       3.65648       1.40035     185.51300      12.20650       5.55481       0.58772       0.41539      20.31250      65.77780      18.86680       0.82203       1.17463  
    30.94090      20.48140       3.35576       1.41353     107.19900       8.48349       6.19049       0.44395       0.37938      16.06250      42.18980      19.31620       0.80388       1.16660  
    31.35290      19.61580       3.05777       1.85556      52.61340       4.29823       5.71864       0.29661       0.35910      12.53120      21.09280      18.63030       0.76197       1.15397  
    31.60570      18.79100       2.70704       2.09012      18.03190       2.35199       6.60637       0.12766       0.27329       5.03125       9.80470      18.18800       0.68804       1.21854  
    32.27510      18.25770       2.92437       2.49818       9.90875       1.46318       8.65006       0.07466       0.26852       3.37500       8.80374      19.01560       0.60112       1.31475  
    35.28540      19.68330       2.93905       2.36541       4.77701       1.11487      12.42540       0.04255       0.17308       1.62500       6.81084      22.05340       0.49343       1.42183  
    36.69280      20.69860       3.08446       1.98746       8.63875       2.43310      18.69870       0.06194       0.19444       2.25000      21.29050      24.08400       0.48845       1.49647  
    36.20440      21.49170       3.57375       1.55974      53.98450       9.30557      12.93390       0.16142       0.30435       7.18750      66.58410      24.23230       0.57013       1.47423  
    33.75260      21.22260       4.09188       1.44244     113.63000      10.78140       4.83434       0.31449       0.35533      12.31250      39.55760      22.02630       0.67894       1.40657  
    31.52970      21.17910       3.87519       1.34887     159.53700      11.93250       4.54289       0.43810       0.39823      17.65620      42.29560      20.12140       0.75594       1.29912  
101s741w                      -10.14740     -74.06250     267.00000        32  
 tmp_max_ave   tmp_min_ave    tmp_max_sd    tmp_min_sd       pcp_ave        pcp_sd      pcp_skew       wet_dry       wet_wet      pcp_days       pcp_hhr       slr_ave       dew_ave       wnd_ave  
    28.14300      20.16550       3.43652       1.21713     490.83300      20.22740       2.61995       0.69474       0.48495      28.03120      60.04070      14.55560       0.86249       1.19677  
    27.97420      20.10520       3.34669       1.28965     480.53200      20.79210       2.35501       0.74444       0.47666      25.43750      54.69940      14.74780       0.87282       1.18639  
    27.89550      20.07730       3.32797       1.36927     500.65000      21.09520       2.91521       0.70000       0.48226      28.18750      70.91300      14.55010       0.87865       1.18035  
    28.26470      19.99220       2.99678       1.37003     388.40100      17.63300       2.69990       0.59060       0.47102      25.34380      52.57970      15.70070       0.86036       1.19832  
    28.70790      19.18900       2.73429       1.80485     252.26000      12.73570       4.62211       0.40078       0.46185      22.93750      56.75420      15.64960       0.81787       1.20218  
    29.04240      18.21180       2.51441       2.05691      98.70740       6.76725       3.91203       0.23307       0.42140      14.31250      20.76660      15.34830       0.73599       1.27957  
    29.74370      17.80780       2.75570       2.39642      57.20210       5.36147       6.15087       0.15208       0.39322       9.21875      27.88440      16.13390       0.63782       1.39149  
    32.56790      19.33910       2.83321       2.21009      32.11670       3.28079       4.96807       0.11182       0.37383       6.68750      10.25110      18.10780       0.51806       1.51638  
    33.85480      20.32460       2.88435       1.78460      48.22860       5.00887       8.17263       0.17181       0.35484       8.71875      28.16800      18.38680       0.52133       1.55977  
    33.30560      20.61970       3.28257       1.32459     186.23300      14.44960       5.82333       0.32564       0.42218      17.46880      61.57390      18.29320       0.62609       1.52616  
    31.02480      20.38580       3.81930       1.31049     360.02000      20.46100       3.17134       0.44167       0.46528      22.50000      58.01290      16.60330       0.74663       1.40616  
    28.96010      20.33740       3.57507       1.20696     485.21100      22.05890       2.69790       0.59441       0.47506      26.31250      57.95340      15.17220       0.82502       1.25749  
101s744w                      -10.14740     -74.37500    1009.00000        32  
 tmp_max_ave   tmp_min_ave    tmp_max_sd    tmp_min_sd       pcp_ave        pcp_sd      pcp_skew       wet_dry       wet_wet      pcp_days       pcp_hhr       slr_ave       dew_ave       wnd_ave  
    25.48480      18.37910       3.12170       1.22897    1249.65000      27.17800       1.50097       0.76923       0.49643      30.59380      66.63400      11.10680       0.92636       1.10990  
    25.37120      18.45530       3.06501       1.29506    1148.87000      26.79000       1.36074       0.88889       0.49721      27.96880      64.26260      11.04610       0.92975       1.09793  
    25.47060      18.44270       3.19238       1.34390    1177.52000      27.00140       1.63363       0.56000       0.49638      30.21880      76.38970      11.16850       0.92922       1.09104  
    26.07430      18.38410       2.94566       1.36466     933.39200      23.75690       1.57450       0.78261       0.49733      29.28120      65.28210      12.85300       0.91483       1.10137  
    26.55460      17.44530       2.69997       1.81218     613.59900      18.13160       1.82897       0.39831       0.48454      27.28120      58.99100      13.63960       0.87773       1.09267  
    26.86540      16.05410       2.57622       2.01060     276.15200      12.27240       1.87528       0.31667       0.45909      20.62500      27.63300      13.44800       0.80446       1.13920  
    27.44720      15.52560       2.86734       2.29102     170.87000      10.31790       2.94284       0.22000       0.44106      15.37500      34.84910      14.13340       0.71175       1.23241  
    30.12250      16.82500       3.19690       2.07886     133.20200       8.71943       2.68461       0.19751       0.42791      13.43750      19.92150      15.14890       0.59682       1.29165  
    31.21880      17.76720       3.20916       1.66851     199.07400      11.15850       2.64000       0.32086       0.44369      18.31250      33.46540      14.21130       0.61938       1.30267  
    30.33270      18.13060       3.55776       1.28320     570.01500      21.88690       2.18301       0.47468       0.48441      26.06250      57.64340      14.01610       0.73469       1.29496  
    28.20310      18.24170       3.80066       1.29725     913.50200      27.63650       1.59582       0.57143       0.48495      28.03120      60.84000      12.90850       0.84101       1.22741  
    26.18720      18.49220       3.38409       1.23544    1179.24000      28.35110       1.38377       0.86207       0.49163      29.87500      67.96060      11.76850       0.90038       1.14247  
101s747w                      -10.14740     -74.68750     402.00000        32  
 tmp_max_ave   tmp_min_ave    tmp_max_sd    tmp_min_sd       pcp_ave        pcp_sd      pcp_skew       wet_dry       wet_wet      pcp_days       pcp_hhr       slr_ave       dew_ave       wnd_ave  
    27.88470      18.94040       3.49879       1.29491     891.18800      24.14390       1.55281       0.78571       0.49158      29.68750      66.02720      14.24030       0.86288       1.15730  
    27.77140      19.06550       3.53036       1.32152     849.24100      25.01370       1.57710       0.77143       0.48907      27.15620      71.69640      13.84920       0.86783       1.11605  
    27.97350      18.96120       3.82441       1.35194     903.18500      25.38100       1.32654       0.72917       0.48835      29.50000      51.33480      13.53310       0.86835       1.06932  
    28.81530      18.88300       3.48704       1.39805     653.76300      22.06220       1.63085       0.52083       0.48727      27.00000      57.88730      14.67030       0.84439       1.05329  
    29.21650      18.03480       2.79101       1.76813     306.11100      13.55540       3.00043       0.39768       0.45902      22.87500      54.82440      15.42660       0.79637       1.09154  
    29.18380      16.84400       2.48153       2.12023      95.74010       6.41464       3.14649       0.22763       0.42152      13.93750      16.13880      15.36030       0.70699       1.18699  
    29.67490      16.74940       2.68154       2.31607      56.37290       4.84406       4.83313       0.17181       0.38264       9.71875      19.56910      16.02650       0.60801       1.32779  
    32.23430      18.55360       2.84547       2.02126      47.32080       4.12676       4.27821       0.14530       0.39310       9.06250      12.78170      17.18100       0.49444       1.46946  
    33.47510      19.37630       2.79481       1.74993      82.10370       6.17119       4.12821       0.24497       0.40920      12.90620      23.36570      16.85170       0.50952       1.51723  
    32.98580      19.34540       3.30267       1.41521     315.48800      15.92810       3.15402       0.38868       0.46080      22.71880      55.83910      17.09310       0.62953       1.41629  
    30.86760      19.05270       3.87387       1.39179     591.25100      22.86870       1.87619       0.56618       0.47452      25.75000      62.86200      16.07660       0.75425       1.29546  
    28.75950      19.12410       3.68258       1.36707     813.16600      24.84820       1.65870       0.58947       0.48315      27.81250      64.00720      14.85350       0.82814       1.20363  
101s750w                      -10.14740     -75.00000     219.00000        32  
 tmp_max_ave   tmp_min_ave    tmp_max_sd    tmp_min_sd       pcp_ave        pcp_sd      pcp_skew       wet_dry       wet_wet      pcp_days       pcp_hhr       slr_ave       dew_ave       wnd_ave  
    31.97030      19.21470       3.49672       1.51937     135.35700      10.17780       3.90563       0.36096       0.36748      14.03120      34.65560      21.42820       0.71300       1.21823  
    32.02580      19.39800       3.67503       1.56075     138.50300      11.67750       4.84491       0.40411       0.37768      14.56250      51.90560      20.78910       0.71895       1.17860  
    32.02270      19.08850       3.95546       1.59602     147.77300      10.67410       3.94429       0.38388       0.36943      14.71880      32.77080      19.82800       0.72862       1.14909  