weather-sta.cli: written by SWAT+ editor v1.2.3 on 2020-11-06 14:57
name                           wgn                        pcp                        tmp                        slr                        hmd                        wnd           wnd_dir          atmo_dep  
sta1015s7094w             101s716w                p101709.pcp                t101709.tmp                s101709.slr                r101709.hmd                w101709.wnd              null              null  
sta1015s7125w             101s716w                p101712.pcp                t101713.tmp                s101713.slr                r101713.hmd                w101713.wnd              null              null  
sta1015s7156w             101s716w                p101716.pcp                t101716.tmp                s101716.slr                r101716.hmd                w101716.wnd              null              null  
sta1015s7188w             101s719w                p101719.pcp                t101719.tmp                s101719.slr                r101719.hmd                w101719.wnd              null              null  
sta1015s7219w             101s722w                p101722.pcp                t101722.tmp                s101722.slr                r101722.hmd                w101722.wnd              null              null  
sta1015s7250w             101s725w                p101725.pcp                t101725.tmp                s101725.slr                r101725.hmd                w101725.wnd              null              null  
sta1015s7281w             101s728w                p101728.pcp                t101728.tmp                s101728.slr                r101728.hmd                w101728.wnd              null              null  
sta1015s7312w             101s731w                p101731.pcp                t101731.tmp                s101731.slr                r101731.hmd                w101731.wnd              null              null  
sta1015s7344w             101s734w                p101734.pcp                t101734.tmp                s101734.slr                r101734.hmd                w101734.wnd              null              null  
sta1015s7375w             101s738w                p101738.pcp                t101738.tmp                s101738.slr                r101738.hmd                w101738.wnd              null              null  
sta1015s7406w             101s741w                p101741.pcp                t101741.tmp                s101741.slr                r101741.hmd                w101741.wnd              null              null  
sta1015s7438w             101s744w                p101744.pcp                t101744.tmp                s101744.slr                r101744.hmd                w101744.wnd              null              null  
sta1015s7469w             101s747w                p101747.pcp                t101747.tmp                s101747.slr                r101747.hmd                w101747.wnd              null              null  
sta1015s7500w             101s750w                p101750.pcp                t101750.tmp                s101750.slr                r101750.hmd                w101750.wnd              null              null  
sta1015s7531w             101s753w                p101753.pcp                t101753.tmp                s101753.slr                r101753.hmd                w101753.wnd              null              null  
sta1015s7562w             101s756w                p101756.pcp                t101756.tmp                s101756.slr                r101756.hmd                w101756.wnd              null              null  
sta1015s7594w             101s759w                p101759.pcp                t101759.tmp                s101759.slr                r101759.hmd                w101759.wnd              null              null  
sta1015s7625w             101s762w                p101762.pcp                t101763.tmp                s101763.slr                r101763.hmd                w101763.wnd              null              null  
sta1046s7094w             105s716w                p105709.pcp                t105709.tmp                s105709.slr                r105709.hmd                w105709.wnd              null              null  
sta1046s7125w             105s716w                p105712.pcp                t105713.tmp                s105713.slr                r105713.hmd                w105713.wnd              null              null  
sta1046s7156w             105s716w                p105716.pcp                t105716.tmp                s105716.slr                r105716.hmd                w105716.wnd              null              null  
sta1046s7188w             105s719w                p105719.pcp                t105719.tmp                s105719.slr                r105719.hmd                w105719.wnd              null              null  
sta1046s7219w             105s722w                p105722.pcp                t105722.tmp                s105722.slr                r105722.hmd                w105722.wnd              null              null  
sta1046s7250w             105s725w                p105725.pcp                t105725.tmp                s105725.slr                r105725.hmd                w105725.wnd              null              null  
sta1046s7281w             105s728w                p105728.pcp                t105728.tmp                s105728.slr                r105728.hmd                w105728.wnd              null              null  
sta1046s7312w             105s731w                p105731.pcp                t105731.tmp                s105731.slr                r105731.hmd                w105731.wnd              null              null  
sta1046s7344w             105s734w                p105734.pcp                t105734.tmp                s105734.slr                r105734.hmd                w105734.wnd              null              null  
sta1046s7375w             105s738w                p105738.pcp                t105738.tmp                s105738.slr                r105738.hmd                w105738.wnd              null              null  
sta1046s7406w             105s741w                p105741.pcp                t105741.tmp                s105741.slr                r105741.hmd                w105741.wnd              null              null  
sta1046s7438w             105s744w                p105744.pcp                t105744.tmp                s105744.slr                r105744.hmd                w105744.wnd              null              null  
sta1046s7469w             105s747w                p105747.pcp                t105747.tmp                s105747.slr                r105747.hmd                w105747.wnd              null              null  
sta1046s7500w             105s750w                p105750.pcp                t105750.tmp                s105750.slr                r105750.hmd                w105750.wnd              null              null  
sta1046s7531w             105s753w                p105753.pcp                t105753.tmp                s105753.slr                r105753.hmd                w105753.wnd              null              null  
sta1046s7562w             105s756w                p105756.pcp                t105756.tmp                s105756.slr                r105756.hmd                w105756.wnd              null              null  
sta1046s7594w             105s759w                p105759.pcp                t105759.tmp                s105759.slr                r105759.hmd                w105759.wnd              null              null  
sta1046s7625w             105s762w                p105762.pcp                t105763.tmp                s105763.slr                r105763.hmd                w105763.wnd              null              null  
sta1077s7094w             108s716w                p108709.pcp                t108709.tmp                s108709.slr                r108709.hmd                w108709.wnd              null              null  
sta1077s7125w             108s716w                p108712.pcp                t108713.tmp                s108713.slr                r108713.hmd                w108713.wnd              null              null  
sta1077s7156w             108s716w                p108716.pcp                t108716.tmp                s108716.slr                r108716.hmd                w108716.wnd              null              null  
sta1077s7188w             108s719w                p108719.pcp                t108719.tmp                s108719.slr                r108719.hmd                w108719.wnd              null              null  
sta1077s7219w             108s722w                p108722.pcp                t108722.tmp                s108722.slr                r108722.hmd                w108722.wnd              null              null  
sta1077s7250w             108s725w                p108725.pcp                t108725.tmp                s108725.slr                r108725.hmd                w108725.wnd              null              null  
sta1077s7281w             108s728w                p108728.pcp                t108728.tmp                s108728.slr                r108728.hmd                w108728.wnd              null              null  
sta1077s7312w             108s731w                p108731.pcp                t108731.tmp                s108731.slr                r108731.hmd                w108731.wnd              null              null  
sta1077s7344w             108s734w                p108734.pcp                t108734.tmp                s108734.slr                r108734.hmd                w108734.wnd              null              null  
sta1077s7375w             108s738w                p108738.pcp                t108738.tmp                s108738.slr                r108738.hmd                w108738.wnd              null              null  
sta1077s7406w             108s741w                p108741.pcp                t108741.tmp                s108741.slr                r108741.hmd                w108741.wnd              null              null  
sta1077s7438w             108s744w                p108744.pcp                t108744.tmp                s108744.slr                r108744.hmd                w108744.wnd              null              null  
sta1077s7469w             108s747w                p108747.pcp                t108747.tmp                s108747.slr                r108747.hmd                w108747.wnd              null              null  
sta1077s7500w             108s750w                p108750.pcp                t108750.tmp                s108750.slr                r108750.hmd                w108750.wnd              null              null  
sta1077s7531w             108s753w                p108753.pcp                t108753.tmp                s108753.slr                r108753.hmd                w108753.wnd              null              null  
sta1077s7562w             108s756w                p108756.pcp                t108756.tmp                s108756.slr                r108756.hmd                w108756.wnd              null              null  
sta1077s7594w             108s759w                p108759.pcp                t108759.tmp                s108759.slr                r108759.hmd                w108759.wnd              null              null  
sta1077s7625w             108s762w                p108762.pcp                t108763.tmp                s108763.slr                r108763.hmd                w108763.wnd              null              null  
sta1108s7094w             111s716w                p111709.pcp                t111709.tmp                s111709.slr                r111709.hmd                w111709.wnd              null              null  
sta1108s7125w             111s716w                p111712.pcp                t111713.tmp                s111713.slr                r111713.hmd                w111713.wnd              null              null  
sta1108s7156w             111s716w                p111716.pcp                t111716.tmp                s111716.slr                r111716.hmd                w111716.wnd              null              null  
sta1108s7188w             111s719w                p111719.pcp                t111719.tmp                s111719.slr                r111719.hmd                w111719.wnd              null              null  
sta1108s7219w             111s722w                p111722.pcp                t111722.tmp                s111722.slr                r111722.hmd                w111722.wnd              null              null  
sta1108s7250w             111s725w                p111725.pcp                t111725.tmp                s111725.slr                r111725.hmd                w111725.wnd              null              null  
sta1108s7281w             111s728w                p111728.pcp                t111728.tmp                s111728.slr                r111728.hmd                w111728.wnd              null              null  
sta1108s7312w             111s731w                p111731.pcp                t111731.tmp                s111731.slr                r111731.hmd                w111731.wnd              null              null  
sta1108s7344w             111s734w                p111734.pcp                t111734.tmp                s111734.slr                r111734.hmd                w111734.wnd              null              null  
sta1108s7375w             111s738w                p111738.pcp                t111738.tmp                s111738.slr                r111738.hmd                w111738.wnd              null              null  
sta1108s7406w             111s741w                p111741.pcp                t111741.tmp                s111741.slr                r111741.hmd                w111741.wnd              null              null  
sta1108s7438w             111s744w                p111744.pcp                t111744.tmp                s111744.slr                r111744.hmd                w111744.wnd              null              null  
sta1108s7469w             111s747w                p111747.pcp                t111747.tmp                s111747.slr                r111747.hmd                w111747.wnd              null              null  
sta1108s7500w             111s750w                p111750.pcp                t111750.tmp                s111750.slr                r111750.hmd                w111750.wnd              null              null  
sta1108s7531w             111s753w                p111753.pcp                t111753.tmp                s111753.slr                r111753.hmd                w111753.wnd              null              null  
sta1108s7562w             111s756w                p111756.pcp                t111756.tmp                s111756.slr                r111756.hmd                w111756.wnd              null              null  
sta1108s7594w             111s759w                p111759.pcp                t111759.tmp                s111759.slr                r111759.hmd                w111759.wnd              null              null  
sta1108s7625w             111s762w                p111762.pcp                t111763.tmp                s111763.slr                r111763.hmd                w111763.wnd              null              null  
sta1140s7094w             114s716w                p114709.pcp                t114709.tmp                s114709.slr                r114709.hmd                w114709.wnd              null              null  
sta1140s7125w             114s716w                p114712.pcp                t114713.tmp                s114713.slr                r114713.hmd                w114713.wnd              null              null  
sta1140s7156w             114s716w                p114716.pcp                t114716.tmp                s114716.slr                r114716.hmd                w114716.wnd              null              null  
sta1140s7188w             114s719w                p114719.pcp                t114719.tmp                s114719.slr                r114719.hmd                w114719.wnd              null              null  
sta1140s7219w             114s722w                p114722.pcp                t114722.tmp                s114722.slr                r114722.hmd                w114722.wnd              null              null  
sta1140s7250w             114s725w                p114725.pcp                t114725.tmp                s114725.slr                r114725.hmd                w114725.wnd              null              null  
sta1140s7281w             114s728w                p114728.pcp                t114728.tmp                s114728.slr                r114728.hmd                w114728.wnd              null              null  
sta1140s7312w             114s731w                p114731.pcp                t114731.tmp                s114731.slr                r114731.hmd                w114731.wnd              null              null  
sta1140s7344w             114s734w                p114734.pcp                t114734.tmp                s114734.slr                r114734.hmd                w114734.wnd              null              null  
sta1140s7375w             114s738w                p114738.pcp                t114738.tmp                s114738.slr                r114738.hmd                w114738.wnd              null              null  
sta1140s7406w             114s741w                p114741.pcp                t114741.tmp                s114741.slr                r114741.hmd                w114741.wnd              null              null  
sta1140s7438w             114s744w                p114744.pcp                t114744.tmp                s114744.slr                r114744.hmd                w114744.wnd              null              null  
sta1140s7469w             114s747w                p114747.pcp                t114747.tmp                s114747.slr                r114747.hmd                w114747.wnd              null              null  
sta1140s7500w             114s750w                p114750.pcp                t114750.tmp                s114750.slr                r114750.hmd                w114750.wnd              null              null  
sta1140s7531w             114s753w                p114753.pcp                t114753.tmp                s114753.slr                r114753.hmd                w114753.wnd              null              null  
sta1140s7562w             114s756w                p114756.pcp                t114756.tmp                s114756.slr                r114756.hmd                w114756.wnd              null              null  
sta1140s7594w             114s759w                p114759.pcp                t114759.tmp                s114759.slr                r114759.hmd                w114759.wnd              null              null  
sta1140s7625w             114s762w                p114762.pcp                t114763.tmp                s114763.slr                r114763.hmd                w114763.wnd              null              null  
sta1171s7094w             117s716w                p117709.pcp                t117709.tmp                s117709.slr                r117709.hmd                w117709.wnd              null              null  
sta1171s7125w             117s716w                p117712.pcp                t117713.tmp                s117713.slr                r117713.hmd                w117713.wnd              null              null  
sta1171s7156w             117s716w                p117716.pcp                t117716.tmp                s117716.slr                r117716.hmd                w117716.wnd              null              null  
sta1171s7188w             117s719w                p117719.pcp                t117719.tmp                s117719.slr                r117719.hmd                w117719.wnd              null              null  
sta1171s7219w             117s722w                p117722.pcp                t117722.tmp                s117722.slr                r117722.hmd                w117722.wnd              null              null  
sta1171s7250w             117s725w                p117725.pcp                t117725.tmp                s117725.slr                r117725.hmd                w117725.wnd              null              null  
sta1171s7281w             117s728w                p117728.pcp                t117728.tmp                s117728.slr                r117728.hmd                w117728.wnd              null              null  
sta1171s7312w             117s731w                p117731.pcp                t117731.tmp                s117731.slr                r117731.hmd                w117731.wnd              null              null  
sta1171s7344w             117s734w                p117734.pcp                t117734.tmp                s117734.slr                r117734.hmd                w117734.wnd              null              null  
sta1171s7375w             117s738w                p117738.pcp                t117738.tmp                s117738.slr                r117738.hmd                w117738.wnd              null              null  
sta1171s7406w             117s741w                p117741.pcp                t117741.tmp                s117741.slr                r117741.hmd                w117741.wnd              null              null  
sta1171s7438w             117s744w                p117744.pcp                t117744.tmp                s117744.slr                r117744.hmd                w117744.wnd              null              null  
sta1171s7469w             117s747w                p117747.pcp                t117747.tmp                s117747.slr                r117747.hmd                w117747.wnd              null              null  
sta1171s7500w             117s750w                p117750.pcp                t117750.tmp                s117750.slr                r117750.hmd                w117750.wnd              null              null  
sta1171s7531w             117s753w                p117753.pcp                t117753.tmp                s117753.slr                r117753.hmd                w117753.wnd              null              null  
sta1171s7562w             117s756w                p117756.pcp                t117756.tmp                s117756.slr                r117756.hmd                w117756.wnd              null              null  
sta1171s7594w             117s759w                p117759.pcp                t117759.tmp                s117759.slr                r117759.hmd                w117759.wnd              null              null  
sta1171s7625w             117s762w                p117759.pcp                t117763.tmp                s117763.slr                r117763.hmd                w117763.wnd              null              null  
sta1202s7094w             120s716w                p120709.pcp                t120709.tmp                s120709.slr                r120709.hmd                w120709.wnd              null              null  
sta1202s7125w             120s716w                p120712.pcp                t120713.tmp                s120713.slr                r120713.hmd                w120713.wnd              null              null  
sta1202s7156w             120s716w                p120716.pcp                t120716.tmp                s120716.slr                r120716.hmd                w120716.wnd              null              null  
sta1202s7188w             120s719w                p120719.pcp                t120719.tmp                s120719.slr                r120719.hmd                w120719.wnd              null              null  
sta1202s7219w             120s722w                p120722.pcp                t120722.tmp                s120722.slr                r120722.hmd                w120722.wnd              null              null  
sta1202s7250w             120s725w                p120725.pcp                t120725.tmp                s120725.slr                r120725.hmd                w120725.wnd              null              null  
sta1202s7281w             120s728w                p120728.pcp                t120728.tmp                s120728.slr                r120728.hmd                w120728.wnd              null              null  
sta1202s7312w             120s731w                p120731.pcp                t120731.tmp                s120731.slr                r120731.hmd                w120731.wnd              null              null  
sta1202s7344w             120s734w                p120734.pcp                t120734.tmp                s120734.slr                r120734.hmd                w120734.wnd              null              null  
sta1202s7375w             120s738w                p120738.pcp                t120738.tmp                s120738.slr                r120738.hmd                w120738.wnd              null              null  
sta1202s7406w             120s741w                p120741.pcp                t120741.tmp                s120741.slr                r120741.hmd                w120741.wnd              null              null  
sta1202s7438w             120s744w                p120744.pcp                t120744.tmp                s120744.slr                r120744.hmd                w120744.wnd              null              null  
sta1202s7469w             120s747w                p120747.pcp                t120747.tmp                s120747.slr                r120747.hmd                w120747.wnd              null              null  
sta1202s7500w             120s750w                p120750.pcp                t120750.tmp                s120750.slr                r120750.hmd                w120750.wnd              null              null  
sta1202s7531w             120s753w                p120753.pcp                t120753.tmp                s120753.slr                r120753.hmd                w120753.wnd              null              null  
sta1202s7562w             120s756w                p120756.pcp                t120756.tmp                s120756.slr                r120756.hmd                w120756.wnd              null              null  
sta1202s7594w             120s759w                p117759.pcp                t120759.tmp                s120759.slr                r120759.hmd                w120759.wnd              null              null  
sta1202s7625w             120s762w                p117759.pcp                t120763.tmp                s120763.slr                r120763.hmd                w120763.wnd              null              null  
sta1233s7094w             123s716w                p123709.pcp                t123709.tmp                s123709.slr                r123709.hmd                w123709.wnd              null              null  
sta1233s7125w             123s716w                p123712.pcp                t123713.tmp                s123713.slr                r123713.hmd                w123713.wnd              null              null  
sta1233s7156w             123s716w                p123716.pcp                t123716.tmp                s123716.slr                r123716.hmd                w123716.wnd              null              null  
sta1233s7188w             123s716w                p123719.pcp                t123719.tmp                s123719.slr                r123719.hmd                w123719.wnd              null              null  
sta1233s7219w             120s722w                p123722.pcp                t123722.tmp                s123722.slr                r123722.hmd                w123722.wnd              null              null  
sta1233s7250w             120s725w                p123725.pcp                t123725.tmp                s123725.slr                r123725.hmd                w123725.wnd              null              null  
sta1233s7281w             123s731w                p123728.pcp                t123728.tmp                s123728.slr                r123728.hmd                w123728.wnd              null              null  
sta1233s7312w             123s731w                p123731.pcp                t123731.tmp                s123731.slr                r123731.hmd                w123731.wnd              null              null  
sta1233s7344w             123s734w                p123734.pcp                t123734.tmp                s123734.slr                r123734.hmd                w123734.wnd              null              null  
sta1233s7375w             123s738w                p123738.pcp                t123738.tmp                s123738.slr                r123738.hmd                w123738.wnd              null              null  
sta1233s7406w             123s741w                p123741.pcp                t123741.tmp                s123741.slr                r123741.hmd                w123741.wnd              null              null  
sta1233s7438w             123s744w                p123744.pcp                t123744.tmp                s123744.slr                r123744.hmd                w123744.wnd              null              null  
sta1233s7469w             123s747w                p123747.pcp                t123747.tmp                s123747.slr                r123747.hmd                w123747.wnd              null              null  
sta1233s7500w             123s750w                p123750.pcp                t123750.tmp                s123750.slr                r123750.hmd                w123750.wnd              null              null  
sta1233s7531w             123s753w                p123753.pcp                t123753.tmp                s123753.slr                r123753.hmd                w123753.wnd              null              null  
sta1233s7562w             123s756w                p123753.pcp                t123756.tmp                s123756.slr                r123756.hmd                w123756.wnd              null              null  