wnd.cli: Wind speed file names - file written by SWAT+ editor 2020-10-09 17:47:33.192053
filename
w101709.wnd
w101713.wnd
w101716.wnd
w101719.wnd
w101722.wnd
w101725.wnd
w101728.wnd
w101731.wnd
w101734.wnd
w101738.wnd
w101741.wnd
w101744.wnd
w101747.wnd
w101750.wnd
w101753.wnd
w101756.wnd
w101759.wnd
w101763.wnd
w105709.wnd
w105713.wnd
w105716.wnd
w105719.wnd
w105722.wnd
w105725.wnd
w105728.wnd
w105731.wnd
w105734.wnd
w105738.wnd
w105741.wnd
w105744.wnd
w105747.wnd
w105750.wnd
w105753.wnd
w105756.wnd
w105759.wnd
w105763.wnd
w108709.wnd
w108713.wnd
w108716.wnd
w108719.wnd
w108722.wnd
w108725.wnd
w108728.wnd
w108731.wnd
w108734.wnd
w108738.wnd
w108741.wnd
w108744.wnd
w108747.wnd
w108750.wnd
w108753.wnd
w108756.wnd
w108759.wnd
w108763.wnd
w111709.wnd
w111713.wnd
w111716.wnd
w111719.wnd
w111722.wnd
w111725.wnd
w111728.wnd
w111731.wnd
w111734.wnd
w111738.wnd
w111741.wnd
w111744.wnd
w111747.wnd
w111750.wnd
w111753.wnd
w111756.wnd
w111759.wnd
w111763.wnd
w114709.wnd
w114713.wnd
w114716.wnd
w114719.wnd
w114722.wnd
w114725.wnd
w114728.wnd
w114731.wnd
w114734.wnd
w114738.wnd
w114741.wnd
w114744.wnd
w114747.wnd
w114750.wnd
w114753.wnd
w114756.wnd
w114759.wnd
w114763.wnd
w117709.wnd
w117713.wnd
w117716.wnd
w117719.wnd
w117722.wnd
w117725.wnd
w117728.wnd
w117731.wnd
w117734.wnd
w117738.wnd
w117741.wnd
w117744.wnd
w117747.wnd
w117750.wnd
w117753.wnd
w117756.wnd
w117759.wnd
w117763.wnd
w120709.wnd
w120713.wnd
w120716.wnd
w120719.wnd
w120722.wnd
w120725.wnd
w120728.wnd
w120731.wnd
w120734.wnd
w120738.wnd
w120741.wnd
w120744.wnd
w120747.wnd
w120750.wnd
w120753.wnd
w120756.wnd
w120759.wnd
w120763.wnd
w123709.wnd
w123713.wnd
w123716.wnd
w123719.wnd
w123722.wnd
w123725.wnd
w123728.wnd
w123731.wnd
w123734.wnd
w123738.wnd
w123741.wnd
w123744.wnd
w123747.wnd
w123750.wnd
w123753.wnd
w123756.wnd
w123759.wnd
w123763.wnd
w126709.wnd
w126713.wnd
w126716.wnd
w126719.wnd
w126722.wnd
w126725.wnd
w126728.wnd
w126731.wnd
w126734.wnd
w126738.wnd
w126741.wnd
w126744.wnd
w126747.wnd
w126750.wnd
w126753.wnd
w126756.wnd
w126759.wnd
w126763.wnd
w130709.wnd
w130713.wnd
w130716.wnd
w130719.wnd
w130722.wnd
w130725.wnd
w130728.wnd
w130731.wnd
w130734.wnd
w130738.wnd
w130741.wnd
w130744.wnd
w130747.wnd
w130750.wnd
w130753.wnd
w130756.wnd
w130759.wnd
w130763.wnd
w133709.wnd
w133713.wnd
w133716.wnd
w133719.wnd
w133722.wnd
w133725.wnd
w133728.wnd
w133731.wnd
w133734.wnd
w133738.wnd
w133741.wnd
w133744.wnd
w133747.wnd
w133750.wnd
w133753.wnd
w133756.wnd
w133759.wnd
w133763.wnd
w136709.wnd
w136713.wnd
w136716.wnd
w136719.wnd
w136722.wnd
w136725.wnd
w136728.wnd
w136731.wnd
w136734.wnd
w136738.wnd
w136741.wnd
w136744.wnd
w136747.wnd
w136750.wnd
w136753.wnd
w136756.wnd
w136759.wnd
w136763.wnd
w139709.wnd
w139713.wnd
w139716.wnd
w139719.wnd
w139722.wnd
w139725.wnd
w139728.wnd
w139731.wnd
w139734.wnd
w139738.wnd
w139741.wnd
w139744.wnd
w139747.wnd
w139750.wnd
w139753.wnd
w139756.wnd
w139759.wnd
w139763.wnd
w142709.wnd
w142713.wnd
w142716.wnd
w142719.wnd
w142722.wnd
w142725.wnd
w142728.wnd
w142731.wnd
w142734.wnd
w142738.wnd
w142741.wnd
w142744.wnd
w142747.wnd
w142750.wnd
w142753.wnd
w142756.wnd
w142759.wnd
w142763.wnd
w145709.wnd
w145713.wnd
w145716.wnd
w145719.wnd
w145722.wnd
w145725.wnd
w145728.wnd
w145731.wnd
w145734.wnd
w145738.wnd
w145741.wnd
w145744.wnd
w145747.wnd
w145750.wnd
w145753.wnd
w145756.wnd
w145759.wnd
w145763.wnd
w48709.wnd
w48713.wnd
w48716.wnd
w48719.wnd
w48722.wnd
w48725.wnd
w48728.wnd
w48731.wnd
w48734.wnd
w48738.wnd
w48741.wnd
w48744.wnd
w48747.wnd
w48750.wnd
w48753.wnd
w48756.wnd
w48759.wnd
w48763.wnd
w52709.wnd
w52713.wnd
w52716.wnd
w52719.wnd
w52722.wnd
w52725.wnd
w52728.wnd
w52731.wnd
w52734.wnd
w52738.wnd
w52741.wnd
w52744.wnd
w52747.wnd
w52750.wnd
w52753.wnd
w52756.wnd
w52759.wnd
w52763.wnd
w55709.wnd
w55713.wnd
w55716.wnd
w55719.wnd
w55722.wnd
w55725.wnd
w55728.wnd
w55731.wnd
w55734.wnd
w55738.wnd
w55741.wnd
w55744.wnd
w55747.wnd
w55750.wnd
w55753.wnd
w55756.wnd
w55759.wnd
w55763.wnd
w58709.wnd
w58713.wnd
w58716.wnd
w58719.wnd
w58722.wnd
w58725.wnd
w58728.wnd
w58731.wnd
w58734.wnd
w58738.wnd
w58741.wnd
w58744.wnd
w58747.wnd
w58750.wnd
w58753.wnd
w58756.wnd
w58759.wnd
w58763.wnd
w61709.wnd
w61713.wnd
w61716.wnd
w61719.wnd
w61722.wnd
w61725.wnd
w61728.wnd
w61731.wnd
w61734.wnd
w61738.wnd
w61741.wnd
w61744.wnd
w61747.wnd
w61750.wnd
w61753.wnd
w61756.wnd
w61759.wnd
w61763.wnd
w64709.wnd
w64713.wnd
w64716.wnd
w64719.wnd
w64722.wnd
w64725.wnd
w64728.wnd
w64731.wnd
w64734.wnd
w64738.wnd
w64741.wnd
w64744.wnd
w64747.wnd
w64750.wnd
w64753.wnd
w64756.wnd
w64759.wnd
w64763.wnd
w67709.wnd
w67713.wnd
w67716.wnd
w67719.wnd
w67722.wnd
w67725.wnd
w67728.wnd
w67731.wnd
w67734.wnd
w67738.wnd
w67741.wnd
w67744.wnd
w67747.wnd
w67750.wnd
w67753.wnd
w67756.wnd
w67759.wnd
w67763.wnd
w70709.wnd
w70713.wnd
w70716.wnd
w70719.wnd
w70722.wnd
w70725.wnd
w70728.wnd
w70731.wnd
w70734.wnd
w70738.wnd
w70741.wnd
w70744.wnd
w70747.wnd
w70750.wnd
w70753.wnd
w70756.wnd
w70759.wnd
w70763.wnd
w73709.wnd
w73713.wnd
w73716.wnd
w73719.wnd
w73722.wnd
w73725.wnd
w73728.wnd
w73731.wnd
w73734.wnd
w73738.wnd
w73741.wnd
w73744.wnd
w73747.wnd
w73750.wnd
w73753.wnd
w73756.wnd
w73759.wnd
w73763.wnd
w76709.wnd
w76713.wnd
w76716.wnd
w76719.wnd
w76722.wnd
w76725.wnd
w76728.wnd
w76731.wnd
w76734.wnd
w76738.wnd
w76741.wnd
w76744.wnd
w76747.wnd
w76750.wnd
w76753.wnd
w76756.wnd
w76759.wnd
w76763.wnd
w80709.wnd
w80713.wnd
w80716.wnd
w80719.wnd
w80722.wnd
w80725.wnd
w80728.wnd
w80731.wnd
w80734.wnd
w80738.wnd
w80741.wnd
w80744.wnd
w80747.wnd
w80750.wnd
w80753.wnd
w80756.wnd
w80759.wnd
w80763.wnd
w83709.wnd
w83713.wnd
w83716.wnd
w83719.wnd
w83722.wnd
w83725.wnd
w83728.wnd
w83731.wnd
w83734.wnd
w83738.wnd
w83741.wnd
w83744.wnd
w83747.wnd
w83750.wnd
w83753.wnd
w83756.wnd
w83759.wnd
w83763.wnd
w86709.wnd
w86713.wnd
w86716.wnd
w86719.wnd
w86722.wnd
w86725.wnd
w86728.wnd
w86731.wnd
w86734.wnd
w86738.wnd
w86741.wnd
w86744.wnd
w86747.wnd
w86750.wnd
w86753.wnd
w86756.wnd
w86759.wnd
w86763.wnd
w89709.wnd
w89713.wnd
w89716.wnd
w89719.wnd
w89722.wnd
w89725.wnd
w89728.wnd
w89731.wnd
w89734.wnd
w89738.wnd
w89741.wnd
w89744.wnd
w89747.wnd
w89750.wnd
w89753.wnd
w89756.wnd
w89759.wnd
w89763.wnd
w92709.wnd
w92713.wnd
w92716.wnd
w92719.wnd
w92722.wnd
w92725.wnd
w92728.wnd
w92731.wnd
w92734.wnd
w92738.wnd
w92741.wnd
w92744.wnd
w92747.wnd
w92750.wnd
w92753.wnd
w92756.wnd
w92759.wnd
w92763.wnd
w95709.wnd
w95713.wnd
w95716.wnd
w95719.wnd
w95722.wnd
w95725.wnd
w95728.wnd
w95731.wnd
w95734.wnd
w95738.wnd
w95741.wnd
w95744.wnd
w95747.wnd
w95750.wnd
w95753.wnd
w95756.wnd
w95759.wnd
w95763.wnd
w98709.wnd
w98713.wnd
w98716.wnd
w98719.wnd
w98722.wnd
w98725.wnd
w98728.wnd
w98731.wnd
w98734.wnd
w98738.wnd
w98741.wnd
w98744.wnd
w98747.wnd
w98750.wnd
w98753.wnd
w98756.wnd
w98759.wnd
w98763.wnd
